* NGSPICE file created from sg13g2_IOPadVss_flat.ext - technology: ihp-sg13g2

.subckt sg13g2_IOPadVss_flat vss vdd iovdd iovss
X0 iovss iovdd.t0 dpantenna l=27.78u w=1.26u
X1 iovss iovdd.t0 dpantenna l=27.78u w=1.26u
X2 iovss.t1 iovss dantenna l=27.78u w=1.26u
X3 iovss.t0 iovss dantenna l=27.78u w=1.26u
R0 iovss.n1020 iovss.n1 21.7649
R1 iovss.n1011 iovss.n4 9.0005
R2 iovss.n10 iovss.n4 9.0005
R3 iovss.n1001 iovss.n4 9.0005
R4 iovss.n1009 iovss.n10 9.0005
R5 iovss.n1008 iovss.n10 9.0005
R6 iovss.n1005 iovss.n10 9.0005
R7 iovss.n1003 iovss.n10 9.0005
R8 iovss.n36 iovss.n10 9.0005
R9 iovss.n919 iovss.n10 9.0005
R10 iovss.n921 iovss.n10 9.0005
R11 iovss.n923 iovss.n10 9.0005
R12 iovss.n925 iovss.n10 9.0005
R13 iovss.n927 iovss.n10 9.0005
R14 iovss.n929 iovss.n10 9.0005
R15 iovss.n931 iovss.n10 9.0005
R16 iovss.n933 iovss.n10 9.0005
R17 iovss.n935 iovss.n10 9.0005
R18 iovss.n937 iovss.n10 9.0005
R19 iovss.n939 iovss.n10 9.0005
R20 iovss.n941 iovss.n10 9.0005
R21 iovss.n943 iovss.n10 9.0005
R22 iovss.n945 iovss.n10 9.0005
R23 iovss.n947 iovss.n10 9.0005
R24 iovss.n949 iovss.n10 9.0005
R25 iovss.n951 iovss.n10 9.0005
R26 iovss.n953 iovss.n10 9.0005
R27 iovss.n955 iovss.n10 9.0005
R28 iovss.n957 iovss.n10 9.0005
R29 iovss.n959 iovss.n10 9.0005
R30 iovss.n961 iovss.n10 9.0005
R31 iovss.n963 iovss.n10 9.0005
R32 iovss.n965 iovss.n10 9.0005
R33 iovss.n967 iovss.n10 9.0005
R34 iovss.n969 iovss.n10 9.0005
R35 iovss.n971 iovss.n10 9.0005
R36 iovss.n973 iovss.n10 9.0005
R37 iovss.n975 iovss.n10 9.0005
R38 iovss.n977 iovss.n10 9.0005
R39 iovss.n979 iovss.n10 9.0005
R40 iovss.n981 iovss.n10 9.0005
R41 iovss.n983 iovss.n10 9.0005
R42 iovss.n985 iovss.n10 9.0005
R43 iovss.n987 iovss.n10 9.0005
R44 iovss.n989 iovss.n10 9.0005
R45 iovss.n991 iovss.n10 9.0005
R46 iovss.n993 iovss.n10 9.0005
R47 iovss.n995 iovss.n10 9.0005
R48 iovss.n997 iovss.n10 9.0005
R49 iovss.n1000 iovss.n10 9.0005
R50 iovss.n1001 iovss.n1000 9.0005
R51 iovss.n1001 iovss.n3 9.0005
R52 iovss.n10 iovss.n3 9.0005
R53 iovss.n747 iovss.n394 9.0005
R54 iovss.n742 iovss.n396 9.0005
R55 iovss.n747 iovss.n396 9.0005
R56 iovss.n742 iovss.n393 9.0005
R57 iovss.n747 iovss.n393 9.0005
R58 iovss.n742 iovss.n398 9.0005
R59 iovss.n747 iovss.n398 9.0005
R60 iovss.n742 iovss.n392 9.0005
R61 iovss.n747 iovss.n392 9.0005
R62 iovss.n742 iovss.n400 9.0005
R63 iovss.n747 iovss.n400 9.0005
R64 iovss.n742 iovss.n391 9.0005
R65 iovss.n747 iovss.n391 9.0005
R66 iovss.n742 iovss.n402 9.0005
R67 iovss.n747 iovss.n402 9.0005
R68 iovss.n742 iovss.n390 9.0005
R69 iovss.n747 iovss.n390 9.0005
R70 iovss.n742 iovss.n404 9.0005
R71 iovss.n747 iovss.n404 9.0005
R72 iovss.n742 iovss.n389 9.0005
R73 iovss.n747 iovss.n389 9.0005
R74 iovss.n742 iovss.n406 9.0005
R75 iovss.n747 iovss.n406 9.0005
R76 iovss.n742 iovss.n388 9.0005
R77 iovss.n747 iovss.n388 9.0005
R78 iovss.n742 iovss.n408 9.0005
R79 iovss.n747 iovss.n408 9.0005
R80 iovss.n742 iovss.n387 9.0005
R81 iovss.n747 iovss.n387 9.0005
R82 iovss.n742 iovss.n410 9.0005
R83 iovss.n747 iovss.n410 9.0005
R84 iovss.n742 iovss.n386 9.0005
R85 iovss.n747 iovss.n386 9.0005
R86 iovss.n742 iovss.n412 9.0005
R87 iovss.n747 iovss.n412 9.0005
R88 iovss.n742 iovss.n385 9.0005
R89 iovss.n747 iovss.n385 9.0005
R90 iovss.n742 iovss.n414 9.0005
R91 iovss.n747 iovss.n414 9.0005
R92 iovss.n742 iovss.n384 9.0005
R93 iovss.n747 iovss.n384 9.0005
R94 iovss.n742 iovss.n416 9.0005
R95 iovss.n747 iovss.n416 9.0005
R96 iovss.n742 iovss.n383 9.0005
R97 iovss.n747 iovss.n383 9.0005
R98 iovss.n742 iovss.n418 9.0005
R99 iovss.n747 iovss.n418 9.0005
R100 iovss.n742 iovss.n382 9.0005
R101 iovss.n747 iovss.n382 9.0005
R102 iovss.n742 iovss.n420 9.0005
R103 iovss.n747 iovss.n420 9.0005
R104 iovss.n742 iovss.n381 9.0005
R105 iovss.n747 iovss.n381 9.0005
R106 iovss.n742 iovss.n422 9.0005
R107 iovss.n747 iovss.n422 9.0005
R108 iovss.n742 iovss.n380 9.0005
R109 iovss.n747 iovss.n380 9.0005
R110 iovss.n742 iovss.n424 9.0005
R111 iovss.n747 iovss.n424 9.0005
R112 iovss.n742 iovss.n379 9.0005
R113 iovss.n747 iovss.n379 9.0005
R114 iovss.n742 iovss.n426 9.0005
R115 iovss.n747 iovss.n426 9.0005
R116 iovss.n742 iovss.n378 9.0005
R117 iovss.n747 iovss.n378 9.0005
R118 iovss.n742 iovss.n428 9.0005
R119 iovss.n747 iovss.n428 9.0005
R120 iovss.n742 iovss.n377 9.0005
R121 iovss.n747 iovss.n377 9.0005
R122 iovss.n742 iovss.n430 9.0005
R123 iovss.n747 iovss.n430 9.0005
R124 iovss.n742 iovss.n376 9.0005
R125 iovss.n747 iovss.n376 9.0005
R126 iovss.n742 iovss.n432 9.0005
R127 iovss.n747 iovss.n432 9.0005
R128 iovss.n742 iovss.n375 9.0005
R129 iovss.n747 iovss.n375 9.0005
R130 iovss.n742 iovss.n434 9.0005
R131 iovss.n747 iovss.n434 9.0005
R132 iovss.n742 iovss.n374 9.0005
R133 iovss.n747 iovss.n374 9.0005
R134 iovss.n742 iovss.n436 9.0005
R135 iovss.n747 iovss.n436 9.0005
R136 iovss.n742 iovss.n373 9.0005
R137 iovss.n747 iovss.n373 9.0005
R138 iovss.n742 iovss.n438 9.0005
R139 iovss.n747 iovss.n438 9.0005
R140 iovss.n742 iovss.n372 9.0005
R141 iovss.n747 iovss.n372 9.0005
R142 iovss.n742 iovss.n440 9.0005
R143 iovss.n747 iovss.n440 9.0005
R144 iovss.n742 iovss.n371 9.0005
R145 iovss.n747 iovss.n371 9.0005
R146 iovss.n742 iovss.n441 9.0005
R147 iovss.n747 iovss.n441 9.0005
R148 iovss.n747 iovss.n746 9.0005
R149 iovss.n746 iovss.n745 9.0005
R150 iovss.n746 iovss.n445 9.0005
R151 iovss.n1018 iovss.n3 9.0005
R152 iovss.n1016 iovss.n3 9.0005
R153 iovss.n5 iovss.n3 9.0005
R154 iovss.n745 iovss.n744 9.0005
R155 iovss.n744 iovss.n445 9.0005
R156 iovss.n1018 iovss.n1017 9.0005
R157 iovss.n1017 iovss.n5 9.0005
R158 iovss.n1017 iovss.n1016 9.0005
R159 iovss.n778 iovss.n777 9.0005
R160 iovss.n777 iovss.n774 9.0005
R161 iovss.n778 iovss.n135 9.0005
R162 iovss.n779 iovss.n160 9.0005
R163 iovss.n781 iovss.n160 9.0005
R164 iovss.n783 iovss.n160 9.0005
R165 iovss.n785 iovss.n160 9.0005
R166 iovss.n787 iovss.n160 9.0005
R167 iovss.n789 iovss.n160 9.0005
R168 iovss.n791 iovss.n160 9.0005
R169 iovss.n793 iovss.n160 9.0005
R170 iovss.n795 iovss.n160 9.0005
R171 iovss.n797 iovss.n160 9.0005
R172 iovss.n799 iovss.n160 9.0005
R173 iovss.n801 iovss.n160 9.0005
R174 iovss.n803 iovss.n160 9.0005
R175 iovss.n805 iovss.n160 9.0005
R176 iovss.n807 iovss.n160 9.0005
R177 iovss.n809 iovss.n160 9.0005
R178 iovss.n811 iovss.n160 9.0005
R179 iovss.n813 iovss.n160 9.0005
R180 iovss.n815 iovss.n160 9.0005
R181 iovss.n817 iovss.n160 9.0005
R182 iovss.n819 iovss.n160 9.0005
R183 iovss.n821 iovss.n160 9.0005
R184 iovss.n823 iovss.n160 9.0005
R185 iovss.n825 iovss.n160 9.0005
R186 iovss.n827 iovss.n160 9.0005
R187 iovss.n829 iovss.n160 9.0005
R188 iovss.n831 iovss.n160 9.0005
R189 iovss.n833 iovss.n160 9.0005
R190 iovss.n835 iovss.n160 9.0005
R191 iovss.n837 iovss.n160 9.0005
R192 iovss.n839 iovss.n160 9.0005
R193 iovss.n841 iovss.n160 9.0005
R194 iovss.n843 iovss.n160 9.0005
R195 iovss.n845 iovss.n160 9.0005
R196 iovss.n847 iovss.n160 9.0005
R197 iovss.n849 iovss.n160 9.0005
R198 iovss.n851 iovss.n160 9.0005
R199 iovss.n853 iovss.n160 9.0005
R200 iovss.n855 iovss.n160 9.0005
R201 iovss.n857 iovss.n160 9.0005
R202 iovss.n859 iovss.n160 9.0005
R203 iovss.n861 iovss.n160 9.0005
R204 iovss.n863 iovss.n160 9.0005
R205 iovss.n865 iovss.n160 9.0005
R206 iovss.n867 iovss.n160 9.0005
R207 iovss.n870 iovss.n160 9.0005
R208 iovss.n771 iovss.n160 9.0005
R209 iovss.n872 iovss.n133 9.0005
R210 iovss.n160 iovss.n133 9.0005
R211 iovss.n886 iovss.n135 9.0005
R212 iovss.n160 iovss.n135 9.0005
R213 iovss.n777 iovss.n160 9.0005
R214 iovss.n774 iovss.n135 9.0005
R215 iovss.n899 iovss.n898 9.0005
R216 iovss.n902 iovss.n103 9.0005
R217 iovss.n902 iovss.n106 9.0005
R218 iovss.n902 iovss.n102 9.0005
R219 iovss.n902 iovss.n108 9.0005
R220 iovss.n902 iovss.n101 9.0005
R221 iovss.n902 iovss.n110 9.0005
R222 iovss.n902 iovss.n100 9.0005
R223 iovss.n902 iovss.n901 9.0005
R224 iovss.n902 iovss.n99 9.0005
R225 iovss.n903 iovss.n96 9.0005
R226 iovss.n903 iovss.n902 9.0005
R227 iovss.n700 iovss.n699 9.0005
R228 iovss.n692 iovss.n460 9.0005
R229 iovss.n699 iovss.n460 9.0005
R230 iovss.n692 iovss.n457 9.0005
R231 iovss.n699 iovss.n457 9.0005
R232 iovss.n692 iovss.n463 9.0005
R233 iovss.n699 iovss.n463 9.0005
R234 iovss.n699 iovss.n456 9.0005
R235 iovss.n692 iovss.n455 9.0005
R236 iovss.n699 iovss.n455 9.0005
R237 iovss.n692 iovss.n467 9.0005
R238 iovss.n699 iovss.n467 9.0005
R239 iovss.n692 iovss.n454 9.0005
R240 iovss.n699 iovss.n454 9.0005
R241 iovss.n699 iovss.n698 9.0005
R242 iovss.n699 iovss.n453 9.0005
R243 iovss.n692 iovss.n95 9.0005
R244 iovss.n699 iovss.n95 9.0005
R245 iovss.n907 iovss.n65 9.0005
R246 iovss.n907 iovss.n906 9.0005
R247 iovss.n906 iovss.n74 9.0005
R248 iovss.n906 iovss.n71 9.0005
R249 iovss.n906 iovss.n77 9.0005
R250 iovss.n906 iovss.n70 9.0005
R251 iovss.n906 iovss.n80 9.0005
R252 iovss.n906 iovss.n69 9.0005
R253 iovss.n906 iovss.n90 9.0005
R254 iovss.n906 iovss.n68 9.0005
R255 iovss.n906 iovss.n93 9.0005
R256 iovss.n906 iovss.n67 9.0005
R257 iovss.n905 iovss.n65 9.0005
R258 iovss.n906 iovss.n905 9.0005
R259 iovss.n1013 iovss.n1012 4.50058
R260 iovss.n1017 iovss.n6 4.50058
R261 iovss.n744 iovss.n370 4.50058
R262 iovss.n746 iovss.n737 4.50058
R263 iovss.n777 iovss.n134 4.50058
R264 iovss.n895 iovss.n117 4.50058
R265 iovss.n700 iovss.n450 4.50058
R266 iovss.n690 iovss.n464 4.50058
R267 iovss.n443 iovss.n442 4.4951
R268 iovss.n1001 iovss.n9 4.49246
R269 iovss.n1011 iovss.n1010 4.49246
R270 iovss.n1001 iovss.n34 4.49246
R271 iovss.n1011 iovss.n33 4.49246
R272 iovss.n1002 iovss.n1001 4.49246
R273 iovss.n1011 iovss.n32 4.49246
R274 iovss.n1001 iovss.n56 4.49246
R275 iovss.n1011 iovss.n31 4.49246
R276 iovss.n1001 iovss.n55 4.49246
R277 iovss.n1011 iovss.n30 4.49246
R278 iovss.n1001 iovss.n54 4.49246
R279 iovss.n1011 iovss.n29 4.49246
R280 iovss.n1001 iovss.n53 4.49246
R281 iovss.n1011 iovss.n28 4.49246
R282 iovss.n1001 iovss.n52 4.49246
R283 iovss.n1011 iovss.n27 4.49246
R284 iovss.n1001 iovss.n51 4.49246
R285 iovss.n1011 iovss.n26 4.49246
R286 iovss.n1001 iovss.n50 4.49246
R287 iovss.n1011 iovss.n25 4.49246
R288 iovss.n1001 iovss.n49 4.49246
R289 iovss.n1011 iovss.n24 4.49246
R290 iovss.n1001 iovss.n48 4.49246
R291 iovss.n1011 iovss.n23 4.49246
R292 iovss.n1001 iovss.n47 4.49246
R293 iovss.n1011 iovss.n22 4.49246
R294 iovss.n1001 iovss.n46 4.49246
R295 iovss.n1011 iovss.n21 4.49246
R296 iovss.n1001 iovss.n45 4.49246
R297 iovss.n1011 iovss.n20 4.49246
R298 iovss.n1001 iovss.n44 4.49246
R299 iovss.n1011 iovss.n19 4.49246
R300 iovss.n1001 iovss.n43 4.49246
R301 iovss.n1011 iovss.n18 4.49246
R302 iovss.n1001 iovss.n42 4.49246
R303 iovss.n1011 iovss.n17 4.49246
R304 iovss.n1001 iovss.n41 4.49246
R305 iovss.n1011 iovss.n16 4.49246
R306 iovss.n1001 iovss.n40 4.49246
R307 iovss.n1011 iovss.n15 4.49246
R308 iovss.n1001 iovss.n39 4.49246
R309 iovss.n1011 iovss.n14 4.49246
R310 iovss.n1001 iovss.n38 4.49246
R311 iovss.n1011 iovss.n13 4.49246
R312 iovss.n1001 iovss.n37 4.49246
R313 iovss.n1011 iovss.n12 4.49246
R314 iovss.n1011 iovss.n7 4.49246
R315 iovss.n743 iovss.n742 4.49246
R316 iovss.n736 iovss.n735 4.49246
R317 iovss.n736 iovss.n734 4.49246
R318 iovss.n736 iovss.n733 4.49246
R319 iovss.n736 iovss.n732 4.49246
R320 iovss.n736 iovss.n731 4.49246
R321 iovss.n736 iovss.n730 4.49246
R322 iovss.n736 iovss.n729 4.49246
R323 iovss.n736 iovss.n728 4.49246
R324 iovss.n736 iovss.n727 4.49246
R325 iovss.n736 iovss.n726 4.49246
R326 iovss.n736 iovss.n725 4.49246
R327 iovss.n736 iovss.n724 4.49246
R328 iovss.n736 iovss.n723 4.49246
R329 iovss.n736 iovss.n722 4.49246
R330 iovss.n736 iovss.n721 4.49246
R331 iovss.n736 iovss.n720 4.49246
R332 iovss.n736 iovss.n719 4.49246
R333 iovss.n736 iovss.n718 4.49246
R334 iovss.n736 iovss.n717 4.49246
R335 iovss.n736 iovss.n716 4.49246
R336 iovss.n736 iovss.n715 4.49246
R337 iovss.n736 iovss.n714 4.49246
R338 iovss.n736 iovss.n713 4.49246
R339 iovss.n736 iovss.n712 4.49246
R340 iovss.n776 iovss.n775 4.49246
R341 iovss.n872 iovss.n748 4.49246
R342 iovss.n886 iovss.n159 4.49246
R343 iovss.n872 iovss.n749 4.49246
R344 iovss.n886 iovss.n158 4.49246
R345 iovss.n872 iovss.n750 4.49246
R346 iovss.n886 iovss.n157 4.49246
R347 iovss.n872 iovss.n751 4.49246
R348 iovss.n886 iovss.n156 4.49246
R349 iovss.n872 iovss.n752 4.49246
R350 iovss.n886 iovss.n155 4.49246
R351 iovss.n872 iovss.n753 4.49246
R352 iovss.n886 iovss.n154 4.49246
R353 iovss.n872 iovss.n754 4.49246
R354 iovss.n886 iovss.n153 4.49246
R355 iovss.n872 iovss.n755 4.49246
R356 iovss.n886 iovss.n152 4.49246
R357 iovss.n872 iovss.n756 4.49246
R358 iovss.n886 iovss.n151 4.49246
R359 iovss.n872 iovss.n757 4.49246
R360 iovss.n886 iovss.n150 4.49246
R361 iovss.n872 iovss.n758 4.49246
R362 iovss.n886 iovss.n149 4.49246
R363 iovss.n872 iovss.n759 4.49246
R364 iovss.n886 iovss.n148 4.49246
R365 iovss.n872 iovss.n760 4.49246
R366 iovss.n886 iovss.n147 4.49246
R367 iovss.n872 iovss.n761 4.49246
R368 iovss.n886 iovss.n146 4.49246
R369 iovss.n872 iovss.n762 4.49246
R370 iovss.n886 iovss.n145 4.49246
R371 iovss.n872 iovss.n763 4.49246
R372 iovss.n886 iovss.n144 4.49246
R373 iovss.n872 iovss.n764 4.49246
R374 iovss.n886 iovss.n143 4.49246
R375 iovss.n872 iovss.n765 4.49246
R376 iovss.n886 iovss.n142 4.49246
R377 iovss.n872 iovss.n766 4.49246
R378 iovss.n886 iovss.n141 4.49246
R379 iovss.n872 iovss.n767 4.49246
R380 iovss.n886 iovss.n140 4.49246
R381 iovss.n872 iovss.n768 4.49246
R382 iovss.n886 iovss.n139 4.49246
R383 iovss.n872 iovss.n769 4.49246
R384 iovss.n886 iovss.n138 4.49246
R385 iovss.n872 iovss.n770 4.49246
R386 iovss.n886 iovss.n137 4.49246
R387 iovss.n872 iovss.n871 4.49246
R388 iovss.n886 iovss.n136 4.49246
R389 iovss.n902 iovss.n104 4.49246
R390 iovss.n118 iovss.n96 4.49246
R391 iovss.n899 iovss.n116 4.49246
R392 iovss.n105 iovss.n96 4.49246
R393 iovss.n899 iovss.n115 4.49246
R394 iovss.n107 iovss.n96 4.49246
R395 iovss.n899 iovss.n114 4.49246
R396 iovss.n109 iovss.n96 4.49246
R397 iovss.n900 iovss.n899 4.49246
R398 iovss.n111 iovss.n96 4.49246
R399 iovss.n899 iovss.n97 4.49246
R400 iovss.n459 iovss.n448 4.49246
R401 iovss.n461 iovss.n448 4.49246
R402 iovss.n692 iovss.n691 4.49246
R403 iovss.n466 iovss.n448 4.49246
R404 iovss.n694 iovss.n448 4.49246
R405 iovss.n693 iovss.n692 4.49246
R406 iovss.n451 iovss.n448 4.49246
R407 iovss.n66 iovss.n64 4.49246
R408 iovss.n73 iovss.n65 4.49246
R409 iovss.n76 iovss.n66 4.49246
R410 iovss.n75 iovss.n65 4.49246
R411 iovss.n79 iovss.n66 4.49246
R412 iovss.n78 iovss.n65 4.49246
R413 iovss.n82 iovss.n66 4.49246
R414 iovss.n81 iovss.n65 4.49246
R415 iovss.n92 iovss.n66 4.49246
R416 iovss.n91 iovss.n65 4.49246
R417 iovss.n94 iovss.n66 4.49246
R418 iovss.n0 iovss.t1 3.07412
R419 iovss.n738 iovss.t0 3.07412
R420 iovss.n456 iovss.n1 3.0079
R421 iovss.n698 iovss.n697 3.00565
R422 iovss.n444 iovss.n394 3.00498
R423 iovss.n914 iovss.n58 3.0005
R424 iovss.n916 iovss.n915 3.0005
R425 iovss.n913 iovss.n60 3.0005
R426 iovss.n912 iovss.n911 3.0005
R427 iovss.n62 iovss.n61 3.0005
R428 iovss.n1015 iovss.n4 3.0005
R429 iovss.n695 iovss.n93 3.0005
R430 iovss.n83 iovss.n68 3.0005
R431 iovss.n90 iovss.n89 3.0005
R432 iovss.n88 iovss.n69 3.0005
R433 iovss.n87 iovss.n80 3.0005
R434 iovss.n86 iovss.n70 3.0005
R435 iovss.n85 iovss.n77 3.0005
R436 iovss.n84 iovss.n71 3.0005
R437 iovss.n74 iovss.n63 3.0005
R438 iovss.n908 iovss.n907 3.0005
R439 iovss.n909 iovss.n62 3.0005
R440 iovss.n911 iovss.n910 3.0005
R441 iovss.n60 iovss.n59 3.0005
R442 iovss.n917 iovss.n916 3.0005
R443 iovss.n918 iovss.n58 3.0005
R444 iovss.n1000 iovss.n999 3.0005
R445 iovss.n998 iovss.n997 3.0005
R446 iovss.n996 iovss.n995 3.0005
R447 iovss.n994 iovss.n993 3.0005
R448 iovss.n992 iovss.n991 3.0005
R449 iovss.n990 iovss.n989 3.0005
R450 iovss.n988 iovss.n987 3.0005
R451 iovss.n986 iovss.n985 3.0005
R452 iovss.n984 iovss.n983 3.0005
R453 iovss.n982 iovss.n981 3.0005
R454 iovss.n980 iovss.n979 3.0005
R455 iovss.n978 iovss.n977 3.0005
R456 iovss.n976 iovss.n975 3.0005
R457 iovss.n974 iovss.n973 3.0005
R458 iovss.n972 iovss.n971 3.0005
R459 iovss.n970 iovss.n969 3.0005
R460 iovss.n968 iovss.n967 3.0005
R461 iovss.n966 iovss.n965 3.0005
R462 iovss.n964 iovss.n963 3.0005
R463 iovss.n962 iovss.n961 3.0005
R464 iovss.n960 iovss.n959 3.0005
R465 iovss.n958 iovss.n957 3.0005
R466 iovss.n956 iovss.n955 3.0005
R467 iovss.n954 iovss.n953 3.0005
R468 iovss.n952 iovss.n951 3.0005
R469 iovss.n950 iovss.n949 3.0005
R470 iovss.n948 iovss.n947 3.0005
R471 iovss.n946 iovss.n945 3.0005
R472 iovss.n944 iovss.n943 3.0005
R473 iovss.n942 iovss.n941 3.0005
R474 iovss.n940 iovss.n939 3.0005
R475 iovss.n938 iovss.n937 3.0005
R476 iovss.n936 iovss.n935 3.0005
R477 iovss.n934 iovss.n933 3.0005
R478 iovss.n932 iovss.n931 3.0005
R479 iovss.n930 iovss.n929 3.0005
R480 iovss.n928 iovss.n927 3.0005
R481 iovss.n926 iovss.n925 3.0005
R482 iovss.n924 iovss.n923 3.0005
R483 iovss.n922 iovss.n921 3.0005
R484 iovss.n920 iovss.n919 3.0005
R485 iovss.n36 iovss.n35 3.0005
R486 iovss.n1004 iovss.n1003 3.0005
R487 iovss.n1006 iovss.n1005 3.0005
R488 iovss.n1008 iovss.n1007 3.0005
R489 iovss.n1009 iovss.n8 3.0005
R490 iovss.n1014 iovss.n1013 3.0005
R491 iovss.n905 iovss.n904 3.0005
R492 iovss.n452 iovss.n67 3.0005
R493 iovss.n904 iovss.n95 3.0005
R494 iovss.n453 iovss.n452 3.0005
R495 iovss.n711 iovss.n710 3.0005
R496 iovss.n708 iovss.n446 3.0005
R497 iovss.n706 iovss.n705 3.0005
R498 iovss.n704 iovss.n447 3.0005
R499 iovss.n703 iovss.n702 3.0005
R500 iovss.n780 iovss.n779 3.0005
R501 iovss.n121 iovss.n101 3.0005
R502 iovss.n122 iovss.n108 3.0005
R503 iovss.n123 iovss.n102 3.0005
R504 iovss.n124 iovss.n106 3.0005
R505 iovss.n125 iovss.n103 3.0005
R506 iovss.n898 iovss.n897 3.0005
R507 iovss.n896 iovss.n895 3.0005
R508 iovss.n894 iovss.n126 3.0005
R509 iovss.n129 iovss.n127 3.0005
R510 iovss.n890 iovss.n130 3.0005
R511 iovss.n889 iovss.n131 3.0005
R512 iovss.n888 iovss.n132 3.0005
R513 iovss.n772 iovss.n133 3.0005
R514 iovss.n773 iovss.n771 3.0005
R515 iovss.n870 iovss.n869 3.0005
R516 iovss.n868 iovss.n867 3.0005
R517 iovss.n866 iovss.n865 3.0005
R518 iovss.n864 iovss.n863 3.0005
R519 iovss.n862 iovss.n861 3.0005
R520 iovss.n860 iovss.n859 3.0005
R521 iovss.n858 iovss.n857 3.0005
R522 iovss.n856 iovss.n855 3.0005
R523 iovss.n854 iovss.n853 3.0005
R524 iovss.n852 iovss.n851 3.0005
R525 iovss.n850 iovss.n849 3.0005
R526 iovss.n848 iovss.n847 3.0005
R527 iovss.n846 iovss.n845 3.0005
R528 iovss.n844 iovss.n843 3.0005
R529 iovss.n842 iovss.n841 3.0005
R530 iovss.n840 iovss.n839 3.0005
R531 iovss.n838 iovss.n837 3.0005
R532 iovss.n836 iovss.n835 3.0005
R533 iovss.n834 iovss.n833 3.0005
R534 iovss.n832 iovss.n831 3.0005
R535 iovss.n830 iovss.n829 3.0005
R536 iovss.n828 iovss.n827 3.0005
R537 iovss.n826 iovss.n825 3.0005
R538 iovss.n824 iovss.n823 3.0005
R539 iovss.n822 iovss.n821 3.0005
R540 iovss.n820 iovss.n819 3.0005
R541 iovss.n818 iovss.n817 3.0005
R542 iovss.n816 iovss.n815 3.0005
R543 iovss.n814 iovss.n813 3.0005
R544 iovss.n812 iovss.n811 3.0005
R545 iovss.n810 iovss.n809 3.0005
R546 iovss.n808 iovss.n807 3.0005
R547 iovss.n806 iovss.n805 3.0005
R548 iovss.n804 iovss.n803 3.0005
R549 iovss.n802 iovss.n801 3.0005
R550 iovss.n800 iovss.n799 3.0005
R551 iovss.n798 iovss.n797 3.0005
R552 iovss.n796 iovss.n795 3.0005
R553 iovss.n794 iovss.n793 3.0005
R554 iovss.n792 iovss.n791 3.0005
R555 iovss.n790 iovss.n789 3.0005
R556 iovss.n788 iovss.n787 3.0005
R557 iovss.n786 iovss.n785 3.0005
R558 iovss.n784 iovss.n783 3.0005
R559 iovss.n782 iovss.n781 3.0005
R560 iovss.n901 iovss.n112 3.0005
R561 iovss.n904 iovss.n903 3.0005
R562 iovss.n452 iovss.n99 3.0005
R563 iovss.n119 iovss.n100 3.0005
R564 iovss.n120 iovss.n110 3.0005
R565 iovss.n888 iovss.n887 3.0005
R566 iovss.n889 iovss.n128 3.0005
R567 iovss.n891 iovss.n890 3.0005
R568 iovss.n892 iovss.n127 3.0005
R569 iovss.n894 iovss.n893 3.0005
R570 iovss.n437 iovss.n1 1.49548
R571 iovss.n403 iovss.n1 1.49548
R572 iovss.n421 iovss.n1 1.49545
R573 iovss.n419 iovss.n1 1.4954
R574 iovss.n439 iovss.n1 1.49532
R575 iovss.n405 iovss.n1 1.49532
R576 iovss.n435 iovss.n1 1.49522
R577 iovss.n401 iovss.n1 1.49522
R578 iovss.n423 iovss.n1 1.49509
R579 iovss.n465 iovss.n1 1.49504
R580 iovss.n429 iovss.n1 1.49504
R581 iovss.n395 iovss.n1 1.49504
R582 iovss.n701 iovss.n1 1.49502
R583 iovss.n411 iovss.n1 1.49502
R584 iovss.n413 iovss.n1 1.49496
R585 iovss.n449 iovss.n1 1.49496
R586 iovss.n417 iovss.n1 1.49494
R587 iovss.n427 iovss.n1 1.49489
R588 iovss.n431 iovss.n1 1.49478
R589 iovss.n397 iovss.n1 1.49478
R590 iovss.n689 iovss.n1 1.49478
R591 iovss.n709 iovss.n1 1.49476
R592 iovss.n407 iovss.n1 1.49476
R593 iovss.n707 iovss.n1 1.49466
R594 iovss.n409 iovss.n1 1.49466
R595 iovss.n433 iovss.n1 1.49455
R596 iovss.n399 iovss.n1 1.49455
R597 iovss.n415 iovss.n1 1.4945
R598 iovss.n462 iovss.n1 1.4945
R599 iovss.n425 iovss.n1 1.49432
R600 iovss.n242 iovss.n239 0.826084
R601 iovss.n546 iovss.n545 0.826084
R602 iovss.n884 iovss.n883 0.822133
R603 iovss.n679 iovss.n678 0.822133
R604 iovss.n241 iovss.n240 0.818682
R605 iovss.n248 iovss.n247 0.818682
R606 iovss.n238 iovss.n236 0.818682
R607 iovss.n253 iovss.n252 0.818682
R608 iovss.n232 iovss.n231 0.818682
R609 iovss.n263 iovss.n262 0.818682
R610 iovss.n229 iovss.n227 0.818682
R611 iovss.n268 iovss.n267 0.818682
R612 iovss.n223 iovss.n222 0.818682
R613 iovss.n278 iovss.n277 0.818682
R614 iovss.n220 iovss.n218 0.818682
R615 iovss.n283 iovss.n282 0.818682
R616 iovss.n214 iovss.n213 0.818682
R617 iovss.n293 iovss.n292 0.818682
R618 iovss.n211 iovss.n209 0.818682
R619 iovss.n298 iovss.n297 0.818682
R620 iovss.n205 iovss.n204 0.818682
R621 iovss.n308 iovss.n307 0.818682
R622 iovss.n202 iovss.n200 0.818682
R623 iovss.n313 iovss.n312 0.818682
R624 iovss.n196 iovss.n195 0.818682
R625 iovss.n323 iovss.n322 0.818682
R626 iovss.n193 iovss.n191 0.818682
R627 iovss.n328 iovss.n327 0.818682
R628 iovss.n187 iovss.n186 0.818682
R629 iovss.n338 iovss.n337 0.818682
R630 iovss.n184 iovss.n182 0.818682
R631 iovss.n343 iovss.n342 0.818682
R632 iovss.n178 iovss.n177 0.818682
R633 iovss.n353 iovss.n352 0.818682
R634 iovss.n175 iovss.n173 0.818682
R635 iovss.n358 iovss.n357 0.818682
R636 iovss.n169 iovss.n168 0.818682
R637 iovss.n368 iovss.n367 0.818682
R638 iovss.n369 iovss.n166 0.818682
R639 iovss.n876 iovss.n875 0.818682
R640 iovss.n162 iovss.n161 0.818682
R641 iovss.n885 iovss.n884 0.818682
R642 iovss.n873 iovss.n161 0.818682
R643 iovss.n875 iovss.n874 0.818682
R644 iovss.n741 iovss.n369 0.818682
R645 iovss.n368 iovss.n57 0.818682
R646 iovss.n168 iovss.n11 0.818682
R647 iovss.n357 iovss.n356 0.818682
R648 iovss.n355 iovss.n175 0.818682
R649 iovss.n354 iovss.n353 0.818682
R650 iovss.n177 iovss.n176 0.818682
R651 iovss.n342 iovss.n341 0.818682
R652 iovss.n340 iovss.n184 0.818682
R653 iovss.n339 iovss.n338 0.818682
R654 iovss.n186 iovss.n185 0.818682
R655 iovss.n327 iovss.n326 0.818682
R656 iovss.n325 iovss.n193 0.818682
R657 iovss.n324 iovss.n323 0.818682
R658 iovss.n195 iovss.n194 0.818682
R659 iovss.n312 iovss.n311 0.818682
R660 iovss.n310 iovss.n202 0.818682
R661 iovss.n309 iovss.n308 0.818682
R662 iovss.n204 iovss.n203 0.818682
R663 iovss.n297 iovss.n296 0.818682
R664 iovss.n295 iovss.n211 0.818682
R665 iovss.n294 iovss.n293 0.818682
R666 iovss.n213 iovss.n212 0.818682
R667 iovss.n282 iovss.n281 0.818682
R668 iovss.n280 iovss.n220 0.818682
R669 iovss.n279 iovss.n278 0.818682
R670 iovss.n222 iovss.n221 0.818682
R671 iovss.n267 iovss.n266 0.818682
R672 iovss.n265 iovss.n229 0.818682
R673 iovss.n264 iovss.n263 0.818682
R674 iovss.n231 iovss.n230 0.818682
R675 iovss.n252 iovss.n251 0.818682
R676 iovss.n250 iovss.n238 0.818682
R677 iovss.n249 iovss.n248 0.818682
R678 iovss.n679 iovss.n98 0.818682
R679 iovss.n667 iovss.n666 0.818682
R680 iovss.n665 iovss.n476 0.818682
R681 iovss.n664 iovss.n663 0.818682
R682 iovss.n478 iovss.n477 0.818682
R683 iovss.n652 iovss.n651 0.818682
R684 iovss.n650 iovss.n485 0.818682
R685 iovss.n649 iovss.n648 0.818682
R686 iovss.n487 iovss.n486 0.818682
R687 iovss.n637 iovss.n636 0.818682
R688 iovss.n635 iovss.n494 0.818682
R689 iovss.n634 iovss.n633 0.818682
R690 iovss.n496 iovss.n495 0.818682
R691 iovss.n622 iovss.n621 0.818682
R692 iovss.n620 iovss.n503 0.818682
R693 iovss.n619 iovss.n618 0.818682
R694 iovss.n505 iovss.n504 0.818682
R695 iovss.n607 iovss.n606 0.818682
R696 iovss.n605 iovss.n512 0.818682
R697 iovss.n604 iovss.n603 0.818682
R698 iovss.n514 iovss.n513 0.818682
R699 iovss.n592 iovss.n591 0.818682
R700 iovss.n590 iovss.n521 0.818682
R701 iovss.n589 iovss.n588 0.818682
R702 iovss.n523 iovss.n522 0.818682
R703 iovss.n577 iovss.n576 0.818682
R704 iovss.n575 iovss.n530 0.818682
R705 iovss.n574 iovss.n573 0.818682
R706 iovss.n532 iovss.n531 0.818682
R707 iovss.n562 iovss.n561 0.818682
R708 iovss.n560 iovss.n539 0.818682
R709 iovss.n559 iovss.n558 0.818682
R710 iovss.n541 iovss.n540 0.818682
R711 iovss.n468 iovss.n72 0.818682
R712 iovss.n688 iovss.n687 0.818682
R713 iovss.n469 iovss.n458 0.818682
R714 iovss.n680 iovss.n113 0.818682
R715 iovss.n548 iovss.n547 0.818682
R716 iovss.n549 iovss.n541 0.818682
R717 iovss.n558 iovss.n557 0.818682
R718 iovss.n543 iovss.n539 0.818682
R719 iovss.n563 iovss.n562 0.818682
R720 iovss.n564 iovss.n532 0.818682
R721 iovss.n573 iovss.n572 0.818682
R722 iovss.n534 iovss.n530 0.818682
R723 iovss.n578 iovss.n577 0.818682
R724 iovss.n579 iovss.n523 0.818682
R725 iovss.n588 iovss.n587 0.818682
R726 iovss.n525 iovss.n521 0.818682
R727 iovss.n593 iovss.n592 0.818682
R728 iovss.n594 iovss.n514 0.818682
R729 iovss.n603 iovss.n602 0.818682
R730 iovss.n516 iovss.n512 0.818682
R731 iovss.n608 iovss.n607 0.818682
R732 iovss.n609 iovss.n505 0.818682
R733 iovss.n618 iovss.n617 0.818682
R734 iovss.n507 iovss.n503 0.818682
R735 iovss.n623 iovss.n622 0.818682
R736 iovss.n624 iovss.n496 0.818682
R737 iovss.n633 iovss.n632 0.818682
R738 iovss.n498 iovss.n494 0.818682
R739 iovss.n638 iovss.n637 0.818682
R740 iovss.n639 iovss.n487 0.818682
R741 iovss.n648 iovss.n647 0.818682
R742 iovss.n489 iovss.n485 0.818682
R743 iovss.n653 iovss.n652 0.818682
R744 iovss.n654 iovss.n478 0.818682
R745 iovss.n663 iovss.n662 0.818682
R746 iovss.n480 iovss.n476 0.818682
R747 iovss.n668 iovss.n667 0.818682
R748 iovss.n669 iovss.n468 0.818682
R749 iovss.n687 iovss.n686 0.818682
R750 iovss.n471 iovss.n469 0.818682
R751 iovss.n681 iovss.n680 0.818682
R752 iovss.n249 iovss.n239 0.416993
R753 iovss.n546 iovss.n540 0.416993
R754 iovss.n696 iovss 0.341436
R755 iovss.n243 iovss.n242 0.201704
R756 iovss.n552 iovss.n545 0.201704
R757 iovss.n883 iovss.n882 0.2005
R758 iovss.n167 iovss.n163 0.2005
R759 iovss.n878 iovss.n877 0.2005
R760 iovss.n366 iovss.n165 0.2005
R761 iovss.n365 iovss.n364 0.2005
R762 iovss.n174 iovss.n170 0.2005
R763 iovss.n360 iovss.n359 0.2005
R764 iovss.n351 iovss.n172 0.2005
R765 iovss.n350 iovss.n349 0.2005
R766 iovss.n183 iovss.n179 0.2005
R767 iovss.n345 iovss.n344 0.2005
R768 iovss.n336 iovss.n181 0.2005
R769 iovss.n335 iovss.n334 0.2005
R770 iovss.n192 iovss.n188 0.2005
R771 iovss.n330 iovss.n329 0.2005
R772 iovss.n321 iovss.n190 0.2005
R773 iovss.n320 iovss.n319 0.2005
R774 iovss.n201 iovss.n197 0.2005
R775 iovss.n315 iovss.n314 0.2005
R776 iovss.n306 iovss.n199 0.2005
R777 iovss.n305 iovss.n304 0.2005
R778 iovss.n210 iovss.n206 0.2005
R779 iovss.n300 iovss.n299 0.2005
R780 iovss.n291 iovss.n208 0.2005
R781 iovss.n290 iovss.n289 0.2005
R782 iovss.n219 iovss.n215 0.2005
R783 iovss.n285 iovss.n284 0.2005
R784 iovss.n276 iovss.n217 0.2005
R785 iovss.n275 iovss.n274 0.2005
R786 iovss.n228 iovss.n224 0.2005
R787 iovss.n270 iovss.n269 0.2005
R788 iovss.n261 iovss.n226 0.2005
R789 iovss.n260 iovss.n259 0.2005
R790 iovss.n237 iovss.n233 0.2005
R791 iovss.n255 iovss.n254 0.2005
R792 iovss.n246 iovss.n235 0.2005
R793 iovss.n245 iovss.n244 0.2005
R794 iovss.n678 iovss.n677 0.2005
R795 iovss.n683 iovss.n682 0.2005
R796 iovss.n685 iovss.n684 0.2005
R797 iovss.n472 iovss.n470 0.2005
R798 iovss.n671 iovss.n670 0.2005
R799 iovss.n475 iovss.n474 0.2005
R800 iovss.n661 iovss.n660 0.2005
R801 iovss.n481 iovss.n479 0.2005
R802 iovss.n656 iovss.n655 0.2005
R803 iovss.n484 iovss.n483 0.2005
R804 iovss.n646 iovss.n645 0.2005
R805 iovss.n490 iovss.n488 0.2005
R806 iovss.n641 iovss.n640 0.2005
R807 iovss.n493 iovss.n492 0.2005
R808 iovss.n631 iovss.n630 0.2005
R809 iovss.n499 iovss.n497 0.2005
R810 iovss.n626 iovss.n625 0.2005
R811 iovss.n502 iovss.n501 0.2005
R812 iovss.n616 iovss.n615 0.2005
R813 iovss.n508 iovss.n506 0.2005
R814 iovss.n611 iovss.n610 0.2005
R815 iovss.n511 iovss.n510 0.2005
R816 iovss.n601 iovss.n600 0.2005
R817 iovss.n517 iovss.n515 0.2005
R818 iovss.n596 iovss.n595 0.2005
R819 iovss.n520 iovss.n519 0.2005
R820 iovss.n586 iovss.n585 0.2005
R821 iovss.n526 iovss.n524 0.2005
R822 iovss.n581 iovss.n580 0.2005
R823 iovss.n529 iovss.n528 0.2005
R824 iovss.n571 iovss.n570 0.2005
R825 iovss.n535 iovss.n533 0.2005
R826 iovss.n566 iovss.n565 0.2005
R827 iovss.n538 iovss.n537 0.2005
R828 iovss.n556 iovss.n555 0.2005
R829 iovss.n544 iovss.n542 0.2005
R830 iovss.n551 iovss.n550 0.2005
R831 iovss.n778 iovss 0.1105
R832 iovss.n1016 iovss 0.1105
R833 iovss.n445 iovss 0.1105
R834 iovss.n882 iovss.n881 0.1105
R835 iovss.n880 iovss.n163 0.1105
R836 iovss.n879 iovss.n878 0.1105
R837 iovss.n165 iovss.n164 0.1105
R838 iovss.n364 iovss.n363 0.1105
R839 iovss.n362 iovss.n170 0.1105
R840 iovss.n361 iovss.n360 0.1105
R841 iovss.n172 iovss.n171 0.1105
R842 iovss.n349 iovss.n348 0.1105
R843 iovss.n347 iovss.n179 0.1105
R844 iovss.n346 iovss.n345 0.1105
R845 iovss.n181 iovss.n180 0.1105
R846 iovss.n334 iovss.n333 0.1105
R847 iovss.n332 iovss.n188 0.1105
R848 iovss.n331 iovss.n330 0.1105
R849 iovss.n190 iovss.n189 0.1105
R850 iovss.n319 iovss.n318 0.1105
R851 iovss.n317 iovss.n197 0.1105
R852 iovss.n316 iovss.n315 0.1105
R853 iovss.n199 iovss.n198 0.1105
R854 iovss.n304 iovss.n303 0.1105
R855 iovss.n302 iovss.n206 0.1105
R856 iovss.n301 iovss.n300 0.1105
R857 iovss.n208 iovss.n207 0.1105
R858 iovss.n289 iovss.n288 0.1105
R859 iovss.n287 iovss.n215 0.1105
R860 iovss.n286 iovss.n285 0.1105
R861 iovss.n217 iovss.n216 0.1105
R862 iovss.n274 iovss.n273 0.1105
R863 iovss.n272 iovss.n224 0.1105
R864 iovss.n271 iovss.n270 0.1105
R865 iovss.n226 iovss.n225 0.1105
R866 iovss.n259 iovss.n258 0.1105