* NGSPICE file created from sg13g2_IOPadIOVss_flat.ext - technology: ihp-sg13g2

.subckt sg13g2_IOPadIOVss_flat iovss vdd vss iovdd
X0 iovss.t4 iovdd.t0 dpantenna l=27.78u w=1.26u
X1 iovss.t5 iovdd.t0 dpantenna l=27.78u w=1.26u
X2 iovss.t3 iovss.t2 dantenna l=27.78u w=1.26u
X3 iovss.t1 iovss.t0 dantenna l=27.78u w=1.26u
R0 iovss.n3104 iovss.n904 21.7649
R1 iovss.n1113 iovss.n1108 9.0005
R2 iovss.n1114 iovss.n1108 9.0005
R3 iovss.n3101 iovss.n1108 9.0005
R4 iovss.n3108 iovss.n3107 9.0005
R5 iovss.n3108 iovss.n1057 9.0005
R6 iovss.n3100 iovss.n1113 9.0005
R7 iovss.n3100 iovss.n1114 9.0005
R8 iovss.n3101 iovss.n3100 9.0005
R9 iovss.n1057 iovss.n965 9.0005
R10 iovss.n3107 iovss.n965 9.0005
R11 iovss.n3077 iovss.n3076 9.0005
R12 iovss.n3076 iovss.n2930 9.0005
R13 iovss.n3078 iovss.n3077 9.0005
R14 iovss.n3078 iovss.n2930 9.0005
R15 iovss.n2093 iovss.n2092 9.0005
R16 iovss.n2089 iovss.n2015 9.0005
R17 iovss.n2089 iovss.n2017 9.0005
R18 iovss.n2089 iovss.n2013 9.0005
R19 iovss.n2089 iovss.n2019 9.0005
R20 iovss.n2089 iovss.n2011 9.0005
R21 iovss.n2089 iovss.n2021 9.0005
R22 iovss.n2089 iovss.n2009 9.0005
R23 iovss.n2089 iovss.n2008 9.0005
R24 iovss.n2089 iovss.n2026 9.0005
R25 iovss.n2089 iovss.n2006 9.0005
R26 iovss.n2089 iovss.n2028 9.0005
R27 iovss.n2089 iovss.n2004 9.0005
R28 iovss.n2089 iovss.n2030 9.0005
R29 iovss.n2089 iovss.n2002 9.0005
R30 iovss.n2089 iovss.n2032 9.0005
R31 iovss.n2089 iovss.n2000 9.0005
R32 iovss.n2089 iovss.n2078 9.0005
R33 iovss.n2090 iovss.n2089 9.0005
R34 iovss.n2092 iovss.n1440 9.0005
R35 iovss.n2016 iovss.n1440 9.0005
R36 iovss.n2015 iovss.n1440 9.0005
R37 iovss.n2017 iovss.n1440 9.0005
R38 iovss.n2014 iovss.n1440 9.0005
R39 iovss.n2018 iovss.n1440 9.0005
R40 iovss.n2013 iovss.n1440 9.0005
R41 iovss.n2019 iovss.n1440 9.0005
R42 iovss.n2012 iovss.n1440 9.0005
R43 iovss.n2020 iovss.n1440 9.0005
R44 iovss.n2011 iovss.n1440 9.0005
R45 iovss.n2021 iovss.n1440 9.0005
R46 iovss.n2010 iovss.n1440 9.0005
R47 iovss.n2022 iovss.n1440 9.0005
R48 iovss.n2009 iovss.n1440 9.0005
R49 iovss.n2025 iovss.n1440 9.0005
R50 iovss.n2007 iovss.n1440 9.0005
R51 iovss.n2026 iovss.n1440 9.0005
R52 iovss.n2006 iovss.n1440 9.0005
R53 iovss.n2027 iovss.n1440 9.0005
R54 iovss.n2005 iovss.n1440 9.0005
R55 iovss.n2028 iovss.n1440 9.0005
R56 iovss.n2004 iovss.n1440 9.0005
R57 iovss.n2029 iovss.n1440 9.0005
R58 iovss.n2003 iovss.n1440 9.0005
R59 iovss.n2030 iovss.n1440 9.0005
R60 iovss.n2002 iovss.n1440 9.0005
R61 iovss.n2031 iovss.n1440 9.0005
R62 iovss.n2001 iovss.n1440 9.0005
R63 iovss.n2032 iovss.n1440 9.0005
R64 iovss.n2000 iovss.n1440 9.0005
R65 iovss.n2033 iovss.n1440 9.0005
R66 iovss.n2080 iovss.n1440 9.0005
R67 iovss.n2078 iovss.n1440 9.0005
R68 iovss.n2090 iovss.n1440 9.0005
R69 iovss.n2092 iovss.n1441 9.0005
R70 iovss.n2016 iovss.n1441 9.0005
R71 iovss.n2015 iovss.n1441 9.0005
R72 iovss.n2017 iovss.n1441 9.0005
R73 iovss.n2014 iovss.n1441 9.0005
R74 iovss.n2018 iovss.n1441 9.0005
R75 iovss.n2013 iovss.n1441 9.0005
R76 iovss.n2019 iovss.n1441 9.0005
R77 iovss.n2012 iovss.n1441 9.0005
R78 iovss.n2020 iovss.n1441 9.0005
R79 iovss.n2011 iovss.n1441 9.0005
R80 iovss.n2021 iovss.n1441 9.0005
R81 iovss.n2010 iovss.n1441 9.0005
R82 iovss.n2022 iovss.n1441 9.0005
R83 iovss.n2009 iovss.n1441 9.0005
R84 iovss.n2024 iovss.n1441 9.0005
R85 iovss.n2008 iovss.n1441 9.0005
R86 iovss.n2025 iovss.n1441 9.0005
R87 iovss.n2007 iovss.n1441 9.0005
R88 iovss.n2026 iovss.n1441 9.0005
R89 iovss.n2006 iovss.n1441 9.0005
R90 iovss.n2027 iovss.n1441 9.0005
R91 iovss.n2005 iovss.n1441 9.0005
R92 iovss.n2028 iovss.n1441 9.0005
R93 iovss.n2004 iovss.n1441 9.0005
R94 iovss.n2029 iovss.n1441 9.0005
R95 iovss.n2003 iovss.n1441 9.0005
R96 iovss.n2030 iovss.n1441 9.0005
R97 iovss.n2002 iovss.n1441 9.0005
R98 iovss.n2031 iovss.n1441 9.0005
R99 iovss.n2001 iovss.n1441 9.0005
R100 iovss.n2032 iovss.n1441 9.0005
R101 iovss.n2000 iovss.n1441 9.0005
R102 iovss.n2033 iovss.n1441 9.0005
R103 iovss.n2080 iovss.n1441 9.0005
R104 iovss.n2078 iovss.n1441 9.0005
R105 iovss.n2090 iovss.n1441 9.0005
R106 iovss.n2092 iovss.n1982 9.0005
R107 iovss.n2016 iovss.n1982 9.0005
R108 iovss.n2015 iovss.n1982 9.0005
R109 iovss.n2017 iovss.n1982 9.0005
R110 iovss.n2014 iovss.n1982 9.0005
R111 iovss.n2018 iovss.n1982 9.0005
R112 iovss.n2013 iovss.n1982 9.0005
R113 iovss.n2019 iovss.n1982 9.0005
R114 iovss.n2012 iovss.n1982 9.0005
R115 iovss.n2020 iovss.n1982 9.0005
R116 iovss.n2011 iovss.n1982 9.0005
R117 iovss.n2021 iovss.n1982 9.0005
R118 iovss.n2010 iovss.n1982 9.0005
R119 iovss.n2022 iovss.n1982 9.0005
R120 iovss.n2009 iovss.n1982 9.0005
R121 iovss.n2024 iovss.n1982 9.0005
R122 iovss.n2008 iovss.n1982 9.0005
R123 iovss.n2025 iovss.n1982 9.0005
R124 iovss.n2007 iovss.n1982 9.0005
R125 iovss.n2026 iovss.n1982 9.0005
R126 iovss.n2006 iovss.n1982 9.0005
R127 iovss.n2027 iovss.n1982 9.0005
R128 iovss.n2005 iovss.n1982 9.0005
R129 iovss.n2028 iovss.n1982 9.0005
R130 iovss.n2004 iovss.n1982 9.0005
R131 iovss.n2029 iovss.n1982 9.0005
R132 iovss.n2003 iovss.n1982 9.0005
R133 iovss.n2030 iovss.n1982 9.0005
R134 iovss.n2002 iovss.n1982 9.0005
R135 iovss.n2031 iovss.n1982 9.0005
R136 iovss.n2001 iovss.n1982 9.0005
R137 iovss.n2032 iovss.n1982 9.0005
R138 iovss.n2000 iovss.n1982 9.0005
R139 iovss.n2033 iovss.n1982 9.0005
R140 iovss.n2078 iovss.n1982 9.0005
R141 iovss.n2090 iovss.n1982 9.0005
R142 iovss.n2092 iovss.n2091 9.0005
R143 iovss.n2091 iovss.n2016 9.0005
R144 iovss.n2091 iovss.n2015 9.0005
R145 iovss.n2091 iovss.n2017 9.0005
R146 iovss.n2091 iovss.n2014 9.0005
R147 iovss.n2091 iovss.n2018 9.0005
R148 iovss.n2091 iovss.n2013 9.0005
R149 iovss.n2091 iovss.n2019 9.0005
R150 iovss.n2091 iovss.n2012 9.0005
R151 iovss.n2091 iovss.n2020 9.0005
R152 iovss.n2091 iovss.n2011 9.0005
R153 iovss.n2091 iovss.n2021 9.0005
R154 iovss.n2091 iovss.n2010 9.0005
R155 iovss.n2091 iovss.n2022 9.0005
R156 iovss.n2091 iovss.n2009 9.0005
R157 iovss.n2091 iovss.n2024 9.0005
R158 iovss.n2091 iovss.n2008 9.0005
R159 iovss.n2091 iovss.n2025 9.0005
R160 iovss.n2091 iovss.n2007 9.0005
R161 iovss.n2091 iovss.n2026 9.0005
R162 iovss.n2091 iovss.n2006 9.0005
R163 iovss.n2091 iovss.n2027 9.0005
R164 iovss.n2091 iovss.n2005 9.0005
R165 iovss.n2091 iovss.n2028 9.0005
R166 iovss.n2091 iovss.n2004 9.0005
R167 iovss.n2091 iovss.n2029 9.0005
R168 iovss.n2091 iovss.n2003 9.0005
R169 iovss.n2091 iovss.n2030 9.0005
R170 iovss.n2091 iovss.n2002 9.0005
R171 iovss.n2091 iovss.n2031 9.0005
R172 iovss.n2091 iovss.n2001 9.0005
R173 iovss.n2091 iovss.n2032 9.0005
R174 iovss.n2091 iovss.n2000 9.0005
R175 iovss.n2091 iovss.n2033 9.0005
R176 iovss.n2091 iovss.n2078 9.0005
R177 iovss.n2091 iovss.n1999 9.0005
R178 iovss.n2091 iovss.n2090 9.0005
R179 iovss.n1547 iovss.n1546 9.0005
R180 iovss.n1546 iovss.n1536 9.0005
R181 iovss.n1546 iovss.n1545 9.0005
R182 iovss.n1539 iovss.n1536 9.0005
R183 iovss.n1545 iovss.n1539 9.0005
R184 iovss.n1545 iovss.n1442 9.0005
R185 iovss.n1536 iovss.n1445 9.0005
R186 iovss.n1538 iovss.n1536 9.0005
R187 iovss.n1545 iovss.n1538 9.0005
R188 iovss.n1545 iovss.n1544 9.0005
R189 iovss.n1996 iovss.n1984 9.0005
R190 iovss.n1994 iovss.n1987 9.0005
R191 iovss.n1996 iovss.n1987 9.0005
R192 iovss.n1996 iovss.n1446 9.0005
R193 iovss.n1485 iovss.n1447 9.0005
R194 iovss.n1994 iovss.n1447 9.0005
R195 iovss.n1996 iovss.n1447 9.0005
R196 iovss.n1994 iovss.n1983 9.0005
R197 iovss.n1996 iovss.n1983 9.0005
R198 iovss.n1995 iovss.n1994 9.0005
R199 iovss.n1995 iovss.n1991 9.0005
R200 iovss.n1996 iovss.n1995 9.0005
R201 iovss.n1502 iovss.n1467 9.0005
R202 iovss.n1502 iovss.n1469 9.0005
R203 iovss.n1502 iovss.n1465 9.0005
R204 iovss.n2560 iovss.n1502 9.0005
R205 iovss.n2562 iovss.n1502 9.0005
R206 iovss.n2552 iovss.n1461 9.0005
R207 iovss.n2552 iovss.n1474 9.0005
R208 iovss.n2552 iovss.n1459 9.0005
R209 iovss.n2552 iovss.n1476 9.0005
R210 iovss.n2552 iovss.n1457 9.0005
R211 iovss.n2552 iovss.n1478 9.0005
R212 iovss.n2552 iovss.n1455 9.0005
R213 iovss.n2552 iovss.n1480 9.0005
R214 iovss.n2552 iovss.n1453 9.0005
R215 iovss.n2552 iovss.n1482 9.0005
R216 iovss.n2552 iovss.n1451 9.0005
R217 iovss.n2552 iovss.n1484 9.0005
R218 iovss.n2560 iovss.n2552 9.0005
R219 iovss.n2562 iovss.n2552 9.0005
R220 iovss.n1467 iovss.n1448 9.0005
R221 iovss.n1468 iovss.n1448 9.0005
R222 iovss.n1466 iovss.n1448 9.0005
R223 iovss.n1469 iovss.n1448 9.0005
R224 iovss.n1465 iovss.n1448 9.0005
R225 iovss.n1470 iovss.n1448 9.0005
R226 iovss.n1464 iovss.n1448 9.0005
R227 iovss.n1471 iovss.n1448 9.0005
R228 iovss.n1463 iovss.n1448 9.0005
R229 iovss.n1472 iovss.n1448 9.0005
R230 iovss.n1462 iovss.n1448 9.0005
R231 iovss.n1473 iovss.n1448 9.0005
R232 iovss.n1461 iovss.n1448 9.0005
R233 iovss.n1474 iovss.n1448 9.0005
R234 iovss.n1460 iovss.n1448 9.0005
R235 iovss.n1475 iovss.n1448 9.0005
R236 iovss.n1459 iovss.n1448 9.0005
R237 iovss.n1476 iovss.n1448 9.0005
R238 iovss.n1458 iovss.n1448 9.0005
R239 iovss.n1477 iovss.n1448 9.0005
R240 iovss.n1457 iovss.n1448 9.0005
R241 iovss.n1478 iovss.n1448 9.0005
R242 iovss.n1456 iovss.n1448 9.0005
R243 iovss.n1479 iovss.n1448 9.0005
R244 iovss.n1455 iovss.n1448 9.0005
R245 iovss.n1480 iovss.n1448 9.0005
R246 iovss.n1454 iovss.n1448 9.0005
R247 iovss.n1481 iovss.n1448 9.0005
R248 iovss.n1453 iovss.n1448 9.0005
R249 iovss.n1482 iovss.n1448 9.0005
R250 iovss.n1452 iovss.n1448 9.0005
R251 iovss.n1483 iovss.n1448 9.0005
R252 iovss.n1451 iovss.n1448 9.0005
R253 iovss.n1484 iovss.n1448 9.0005
R254 iovss.n2562 iovss.n1448 9.0005
R255 iovss.n2563 iovss.n1467 9.0005
R256 iovss.n2563 iovss.n1468 9.0005
R257 iovss.n2563 iovss.n1466 9.0005
R258 iovss.n2563 iovss.n1469 9.0005
R259 iovss.n2563 iovss.n1465 9.0005
R260 iovss.n2563 iovss.n1470 9.0005
R261 iovss.n2563 iovss.n1464 9.0005
R262 iovss.n2563 iovss.n1471 9.0005
R263 iovss.n2563 iovss.n1463 9.0005
R264 iovss.n2563 iovss.n1472 9.0005
R265 iovss.n2563 iovss.n1462 9.0005
R266 iovss.n2563 iovss.n1473 9.0005
R267 iovss.n2563 iovss.n1461 9.0005
R268 iovss.n2563 iovss.n1474 9.0005
R269 iovss.n2563 iovss.n1460 9.0005
R270 iovss.n2563 iovss.n1475 9.0005
R271 iovss.n2563 iovss.n1459 9.0005
R272 iovss.n2563 iovss.n1476 9.0005
R273 iovss.n2563 iovss.n1458 9.0005
R274 iovss.n2563 iovss.n1477 9.0005
R275 iovss.n2563 iovss.n1457 9.0005
R276 iovss.n2563 iovss.n1478 9.0005
R277 iovss.n2563 iovss.n1456 9.0005
R278 iovss.n2563 iovss.n1479 9.0005
R279 iovss.n2563 iovss.n1455 9.0005
R280 iovss.n2563 iovss.n1480 9.0005
R281 iovss.n2563 iovss.n1454 9.0005
R282 iovss.n2563 iovss.n1481 9.0005
R283 iovss.n2563 iovss.n1453 9.0005
R284 iovss.n2563 iovss.n1482 9.0005
R285 iovss.n2563 iovss.n1452 9.0005
R286 iovss.n2563 iovss.n1483 9.0005
R287 iovss.n2563 iovss.n1451 9.0005
R288 iovss.n2563 iovss.n1484 9.0005
R289 iovss.n2563 iovss.n2562 9.0005
R290 iovss.n1486 iovss.n1467 9.0005
R291 iovss.n1486 iovss.n1468 9.0005
R292 iovss.n1486 iovss.n1466 9.0005
R293 iovss.n1486 iovss.n1469 9.0005
R294 iovss.n1486 iovss.n1465 9.0005
R295 iovss.n1486 iovss.n1470 9.0005
R296 iovss.n1486 iovss.n1464 9.0005
R297 iovss.n1486 iovss.n1471 9.0005
R298 iovss.n1486 iovss.n1463 9.0005
R299 iovss.n1486 iovss.n1472 9.0005
R300 iovss.n1486 iovss.n1462 9.0005
R301 iovss.n1486 iovss.n1473 9.0005
R302 iovss.n1486 iovss.n1461 9.0005
R303 iovss.n1486 iovss.n1474 9.0005
R304 iovss.n1486 iovss.n1460 9.0005
R305 iovss.n1486 iovss.n1475 9.0005
R306 iovss.n1486 iovss.n1459 9.0005
R307 iovss.n1486 iovss.n1476 9.0005
R308 iovss.n1486 iovss.n1458 9.0005
R309 iovss.n1486 iovss.n1477 9.0005
R310 iovss.n1486 iovss.n1457 9.0005
R311 iovss.n1486 iovss.n1478 9.0005
R312 iovss.n1486 iovss.n1456 9.0005
R313 iovss.n1486 iovss.n1479 9.0005
R314 iovss.n1486 iovss.n1455 9.0005
R315 iovss.n1486 iovss.n1480 9.0005
R316 iovss.n1486 iovss.n1454 9.0005
R317 iovss.n1486 iovss.n1481 9.0005
R318 iovss.n1486 iovss.n1453 9.0005
R319 iovss.n1486 iovss.n1482 9.0005
R320 iovss.n1486 iovss.n1452 9.0005
R321 iovss.n1486 iovss.n1483 9.0005
R322 iovss.n1486 iovss.n1451 9.0005
R323 iovss.n1486 iovss.n1484 9.0005
R324 iovss.n2560 iovss.n1486 9.0005
R325 iovss.n2562 iovss.n1486 9.0005
R326 iovss.n2561 iovss.n1467 9.0005
R327 iovss.n2561 iovss.n1468 9.0005
R328 iovss.n2561 iovss.n1466 9.0005
R329 iovss.n2561 iovss.n1469 9.0005
R330 iovss.n2561 iovss.n1465 9.0005
R331 iovss.n2561 iovss.n1470 9.0005
R332 iovss.n2561 iovss.n1464 9.0005
R333 iovss.n2561 iovss.n1471 9.0005
R334 iovss.n2561 iovss.n1463 9.0005
R335 iovss.n2561 iovss.n1472 9.0005
R336 iovss.n2561 iovss.n1462 9.0005
R337 iovss.n2561 iovss.n1473 9.0005
R338 iovss.n2561 iovss.n1461 9.0005
R339 iovss.n2561 iovss.n1474 9.0005
R340 iovss.n2561 iovss.n1460 9.0005
R341 iovss.n2561 iovss.n1475 9.0005
R342 iovss.n2561 iovss.n1459 9.0005
R343 iovss.n2561 iovss.n1476 9.0005
R344 iovss.n2561 iovss.n1458 9.0005
R345 iovss.n2561 iovss.n1477 9.0005
R346 iovss.n2561 iovss.n1457 9.0005
R347 iovss.n2561 iovss.n1478 9.0005
R348 iovss.n2561 iovss.n1456 9.0005
R349 iovss.n2561 iovss.n1479 9.0005
R350 iovss.n2561 iovss.n1455 9.0005
R351 iovss.n2561 iovss.n1480 9.0005
R352 iovss.n2561 iovss.n1454 9.0005
R353 iovss.n2561 iovss.n1481 9.0005
R354 iovss.n2561 iovss.n1453 9.0005
R355 iovss.n2561 iovss.n1482 9.0005
R356 iovss.n2561 iovss.n1452 9.0005
R357 iovss.n2561 iovss.n1483 9.0005
R358 iovss.n2561 iovss.n1451 9.0005
R359 iovss.n2561 iovss.n1484 9.0005
R360 iovss.n2561 iovss.n2560 9.0005
R361 iovss.n2561 iovss.n2558 9.0005
R362 iovss.n2562 iovss.n2561 9.0005
R363 iovss.n1790 iovss.n303 9.0005
R364 iovss.n2292 iovss.n1732 9.0005
R365 iovss.n1804 iovss.n1732 9.0005
R366 iovss.n1798 iovss.n1732 9.0005
R367 iovss.n1809 iovss.n1732 9.0005
R368 iovss.n1796 iovss.n1732 9.0005
R369 iovss.n1814 iovss.n1732 9.0005
R370 iovss.n1794 iovss.n1732 9.0005
R371 iovss.n1819 iovss.n1732 9.0005
R372 iovss.n1792 iovss.n1732 9.0005
R373 iovss.n1824 iovss.n1732 9.0005
R374 iovss.n1788 iovss.n1732 9.0005
R375 iovss.n1832 iovss.n1732 9.0005
R376 iovss.n1786 iovss.n1732 9.0005
R377 iovss.n1837 iovss.n1732 9.0005
R378 iovss.n1784 iovss.n1732 9.0005
R379 iovss.n1841 iovss.n1732 9.0005
R380 iovss.n2292 iovss.n1730 9.0005
R381 iovss.n1801 iovss.n1730 9.0005
R382 iovss.n1799 iovss.n1730 9.0005
R383 iovss.n1804 iovss.n1730 9.0005
R384 iovss.n1798 iovss.n1730 9.0005
R385 iovss.n1807 iovss.n1730 9.0005
R386 iovss.n1797 iovss.n1730 9.0005
R387 iovss.n1809 iovss.n1730 9.0005
R388 iovss.n1796 iovss.n1730 9.0005
R389 iovss.n1812 iovss.n1730 9.0005
R390 iovss.n1795 iovss.n1730 9.0005
R391 iovss.n1814 iovss.n1730 9.0005
R392 iovss.n1794 iovss.n1730 9.0005
R393 iovss.n1817 iovss.n1730 9.0005
R394 iovss.n1793 iovss.n1730 9.0005
R395 iovss.n1819 iovss.n1730 9.0005
R396 iovss.n1792 iovss.n1730 9.0005
R397 iovss.n1822 iovss.n1730 9.0005
R398 iovss.n1791 iovss.n1730 9.0005
R399 iovss.n1824 iovss.n1730 9.0005
R400 iovss.n1790 iovss.n1730 9.0005
R401 iovss.n1827 iovss.n1730 9.0005
R402 iovss.n1789 iovss.n1730 9.0005
R403 iovss.n1830 iovss.n1730 9.0005
R404 iovss.n1788 iovss.n1730 9.0005
R405 iovss.n1832 iovss.n1730 9.0005
R406 iovss.n1787 iovss.n1730 9.0005
R407 iovss.n1835 iovss.n1730 9.0005
R408 iovss.n1786 iovss.n1730 9.0005
R409 iovss.n1837 iovss.n1730 9.0005
R410 iovss.n1785 iovss.n1730 9.0005
R411 iovss.n1840 iovss.n1730 9.0005
R412 iovss.n1784 iovss.n1730 9.0005
R413 iovss.n1841 iovss.n1730 9.0005
R414 iovss.n1870 iovss.n1730 9.0005
R415 iovss.n2290 iovss.n1730 9.0005
R416 iovss.n2292 iovss.n1733 9.0005
R417 iovss.n1801 iovss.n1733 9.0005
R418 iovss.n1799 iovss.n1733 9.0005
R419 iovss.n1804 iovss.n1733 9.0005
R420 iovss.n1798 iovss.n1733 9.0005
R421 iovss.n1807 iovss.n1733 9.0005
R422 iovss.n1797 iovss.n1733 9.0005
R423 iovss.n1809 iovss.n1733 9.0005
R424 iovss.n1796 iovss.n1733 9.0005
R425 iovss.n1812 iovss.n1733 9.0005
R426 iovss.n1795 iovss.n1733 9.0005
R427 iovss.n1814 iovss.n1733 9.0005
R428 iovss.n1794 iovss.n1733 9.0005
R429 iovss.n1817 iovss.n1733 9.0005
R430 iovss.n1793 iovss.n1733 9.0005
R431 iovss.n1819 iovss.n1733 9.0005
R432 iovss.n1792 iovss.n1733 9.0005
R433 iovss.n1822 iovss.n1733 9.0005
R434 iovss.n1791 iovss.n1733 9.0005
R435 iovss.n1824 iovss.n1733 9.0005
R436 iovss.n1790 iovss.n1733 9.0005
R437 iovss.n1827 iovss.n1733 9.0005
R438 iovss.n1789 iovss.n1733 9.0005
R439 iovss.n1830 iovss.n1733 9.0005
R440 iovss.n1788 iovss.n1733 9.0005
R441 iovss.n1832 iovss.n1733 9.0005
R442 iovss.n1787 iovss.n1733 9.0005
R443 iovss.n1835 iovss.n1733 9.0005
R444 iovss.n1786 iovss.n1733 9.0005
R445 iovss.n1837 iovss.n1733 9.0005
R446 iovss.n1785 iovss.n1733 9.0005
R447 iovss.n1840 iovss.n1733 9.0005
R448 iovss.n1784 iovss.n1733 9.0005
R449 iovss.n1841 iovss.n1733 9.0005
R450 iovss.n1870 iovss.n1733 9.0005
R451 iovss.n2290 iovss.n1733 9.0005
R452 iovss.n2292 iovss.n1729 9.0005
R453 iovss.n1801 iovss.n1729 9.0005
R454 iovss.n1799 iovss.n1729 9.0005
R455 iovss.n1804 iovss.n1729 9.0005
R456 iovss.n1798 iovss.n1729 9.0005
R457 iovss.n1807 iovss.n1729 9.0005
R458 iovss.n1797 iovss.n1729 9.0005
R459 iovss.n1809 iovss.n1729 9.0005
R460 iovss.n1796 iovss.n1729 9.0005
R461 iovss.n1812 iovss.n1729 9.0005
R462 iovss.n1795 iovss.n1729 9.0005
R463 iovss.n1814 iovss.n1729 9.0005
R464 iovss.n1794 iovss.n1729 9.0005
R465 iovss.n1817 iovss.n1729 9.0005
R466 iovss.n1793 iovss.n1729 9.0005
R467 iovss.n1819 iovss.n1729 9.0005
R468 iovss.n1792 iovss.n1729 9.0005
R469 iovss.n1822 iovss.n1729 9.0005
R470 iovss.n1791 iovss.n1729 9.0005
R471 iovss.n1824 iovss.n1729 9.0005
R472 iovss.n1790 iovss.n1729 9.0005
R473 iovss.n1827 iovss.n1729 9.0005
R474 iovss.n1789 iovss.n1729 9.0005
R475 iovss.n1830 iovss.n1729 9.0005
R476 iovss.n1788 iovss.n1729 9.0005
R477 iovss.n1832 iovss.n1729 9.0005
R478 iovss.n1787 iovss.n1729 9.0005
R479 iovss.n1835 iovss.n1729 9.0005
R480 iovss.n1786 iovss.n1729 9.0005
R481 iovss.n1837 iovss.n1729 9.0005
R482 iovss.n1785 iovss.n1729 9.0005
R483 iovss.n1840 iovss.n1729 9.0005
R484 iovss.n1784 iovss.n1729 9.0005
R485 iovss.n1841 iovss.n1729 9.0005
R486 iovss.n1870 iovss.n1729 9.0005
R487 iovss.n2290 iovss.n1729 9.0005
R488 iovss.n2292 iovss.n1734 9.0005
R489 iovss.n1801 iovss.n1734 9.0005
R490 iovss.n1799 iovss.n1734 9.0005
R491 iovss.n1804 iovss.n1734 9.0005
R492 iovss.n1798 iovss.n1734 9.0005
R493 iovss.n1807 iovss.n1734 9.0005
R494 iovss.n1797 iovss.n1734 9.0005
R495 iovss.n1809 iovss.n1734 9.0005
R496 iovss.n1796 iovss.n1734 9.0005
R497 iovss.n1812 iovss.n1734 9.0005
R498 iovss.n1795 iovss.n1734 9.0005
R499 iovss.n1814 iovss.n1734 9.0005
R500 iovss.n1794 iovss.n1734 9.0005
R501 iovss.n1817 iovss.n1734 9.0005
R502 iovss.n1793 iovss.n1734 9.0005
R503 iovss.n1819 iovss.n1734 9.0005
R504 iovss.n1792 iovss.n1734 9.0005
R505 iovss.n1822 iovss.n1734 9.0005
R506 iovss.n1791 iovss.n1734 9.0005
R507 iovss.n1824 iovss.n1734 9.0005
R508 iovss.n1790 iovss.n1734 9.0005
R509 iovss.n1827 iovss.n1734 9.0005
R510 iovss.n1789 iovss.n1734 9.0005
R511 iovss.n1830 iovss.n1734 9.0005
R512 iovss.n1788 iovss.n1734 9.0005
R513 iovss.n1832 iovss.n1734 9.0005
R514 iovss.n1787 iovss.n1734 9.0005
R515 iovss.n1835 iovss.n1734 9.0005
R516 iovss.n1786 iovss.n1734 9.0005
R517 iovss.n1837 iovss.n1734 9.0005
R518 iovss.n1785 iovss.n1734 9.0005
R519 iovss.n1840 iovss.n1734 9.0005
R520 iovss.n1784 iovss.n1734 9.0005
R521 iovss.n1841 iovss.n1734 9.0005
R522 iovss.n1870 iovss.n1734 9.0005
R523 iovss.n2290 iovss.n1734 9.0005
R524 iovss.n2292 iovss.n1728 9.0005
R525 iovss.n1801 iovss.n1728 9.0005
R526 iovss.n1799 iovss.n1728 9.0005
R527 iovss.n1804 iovss.n1728 9.0005
R528 iovss.n1798 iovss.n1728 9.0005
R529 iovss.n1807 iovss.n1728 9.0005
R530 iovss.n1797 iovss.n1728 9.0005
R531 iovss.n1809 iovss.n1728 9.0005
R532 iovss.n1796 iovss.n1728 9.0005
R533 iovss.n1812 iovss.n1728 9.0005
R534 iovss.n1795 iovss.n1728 9.0005
R535 iovss.n1814 iovss.n1728 9.0005
R536 iovss.n1794 iovss.n1728 9.0005
R537 iovss.n1817 iovss.n1728 9.0005
R538 iovss.n1793 iovss.n1728 9.0005
R539 iovss.n1819 iovss.n1728 9.0005
R540 iovss.n1792 iovss.n1728 9.0005
R541 iovss.n1822 iovss.n1728 9.0005
R542 iovss.n1791 iovss.n1728 9.0005
R543 iovss.n1824 iovss.n1728 9.0005
R544 iovss.n1790 iovss.n1728 9.0005
R545 iovss.n1827 iovss.n1728 9.0005
R546 iovss.n1789 iovss.n1728 9.0005
R547 iovss.n1830 iovss.n1728 9.0005
R548 iovss.n1788 iovss.n1728 9.0005
R549 iovss.n1832 iovss.n1728 9.0005
R550 iovss.n1787 iovss.n1728 9.0005
R551 iovss.n1835 iovss.n1728 9.0005
R552 iovss.n1786 iovss.n1728 9.0005
R553 iovss.n1837 iovss.n1728 9.0005
R554 iovss.n1785 iovss.n1728 9.0005
R555 iovss.n1840 iovss.n1728 9.0005
R556 iovss.n1784 iovss.n1728 9.0005
R557 iovss.n1841 iovss.n1728 9.0005
R558 iovss.n1870 iovss.n1728 9.0005
R559 iovss.n2290 iovss.n1728 9.0005
R560 iovss.n2292 iovss.n1735 9.0005
R561 iovss.n1801 iovss.n1735 9.0005
R562 iovss.n1799 iovss.n1735 9.0005
R563 iovss.n1804 iovss.n1735 9.0005
R564 iovss.n1798 iovss.n1735 9.0005
R565 iovss.n1807 iovss.n1735 9.0005
R566 iovss.n1797 iovss.n1735 9.0005
R567 iovss.n1809 iovss.n1735 9.0005
R568 iovss.n1796 iovss.n1735 9.0005
R569 iovss.n1812 iovss.n1735 9.0005
R570 iovss.n1795 iovss.n1735 9.0005
R571 iovss.n1814 iovss.n1735 9.0005
R572 iovss.n1794 iovss.n1735 9.0005
R573 iovss.n1817 iovss.n1735 9.0005
R574 iovss.n1793 iovss.n1735 9.0005
R575 iovss.n1819 iovss.n1735 9.0005
R576 iovss.n1792 iovss.n1735 9.0005
R577 iovss.n1822 iovss.n1735 9.0005
R578 iovss.n1791 iovss.n1735 9.0005
R579 iovss.n1824 iovss.n1735 9.0005
R580 iovss.n1790 iovss.n1735 9.0005
R581 iovss.n1827 iovss.n1735 9.0005
R582 iovss.n1789 iovss.n1735 9.0005
R583 iovss.n1830 iovss.n1735 9.0005
R584 iovss.n1788 iovss.n1735 9.0005
R585 iovss.n1832 iovss.n1735 9.0005
R586 iovss.n1787 iovss.n1735 9.0005
R587 iovss.n1835 iovss.n1735 9.0005
R588 iovss.n1786 iovss.n1735 9.0005
R589 iovss.n1837 iovss.n1735 9.0005
R590 iovss.n1785 iovss.n1735 9.0005
R591 iovss.n1840 iovss.n1735 9.0005
R592 iovss.n1784 iovss.n1735 9.0005
R593 iovss.n1841 iovss.n1735 9.0005
R594 iovss.n1870 iovss.n1735 9.0005
R595 iovss.n2290 iovss.n1735 9.0005
R596 iovss.n2292 iovss.n1727 9.0005
R597 iovss.n1801 iovss.n1727 9.0005
R598 iovss.n1799 iovss.n1727 9.0005
R599 iovss.n1804 iovss.n1727 9.0005
R600 iovss.n1798 iovss.n1727 9.0005
R601 iovss.n1807 iovss.n1727 9.0005
R602 iovss.n1797 iovss.n1727 9.0005
R603 iovss.n1809 iovss.n1727 9.0005
R604 iovss.n1796 iovss.n1727 9.0005
R605 iovss.n1812 iovss.n1727 9.0005
R606 iovss.n1795 iovss.n1727 9.0005
R607 iovss.n1814 iovss.n1727 9.0005
R608 iovss.n1794 iovss.n1727 9.0005
R609 iovss.n1817 iovss.n1727 9.0005
R610 iovss.n1793 iovss.n1727 9.0005
R611 iovss.n1819 iovss.n1727 9.0005
R612 iovss.n1792 iovss.n1727 9.0005
R613 iovss.n1822 iovss.n1727 9.0005
R614 iovss.n1791 iovss.n1727 9.0005
R615 iovss.n1824 iovss.n1727 9.0005
R616 iovss.n1790 iovss.n1727 9.0005
R617 iovss.n1827 iovss.n1727 9.0005
R618 iovss.n1789 iovss.n1727 9.0005
R619 iovss.n1830 iovss.n1727 9.0005
R620 iovss.n1788 iovss.n1727 9.0005
R621 iovss.n1832 iovss.n1727 9.0005
R622 iovss.n1787 iovss.n1727 9.0005
R623 iovss.n1835 iovss.n1727 9.0005
R624 iovss.n1786 iovss.n1727 9.0005
R625 iovss.n1837 iovss.n1727 9.0005
R626 iovss.n1785 iovss.n1727 9.0005
R627 iovss.n1840 iovss.n1727 9.0005
R628 iovss.n1784 iovss.n1727 9.0005
R629 iovss.n1841 iovss.n1727 9.0005
R630 iovss.n1870 iovss.n1727 9.0005
R631 iovss.n2290 iovss.n1727 9.0005
R632 iovss.n2292 iovss.n1736 9.0005
R633 iovss.n1801 iovss.n1736 9.0005
R634 iovss.n1799 iovss.n1736 9.0005
R635 iovss.n1804 iovss.n1736 9.0005
R636 iovss.n1798 iovss.n1736 9.0005
R637 iovss.n1807 iovss.n1736 9.0005
R638 iovss.n1797 iovss.n1736 9.0005
R639 iovss.n1809 iovss.n1736 9.0005
R640 iovss.n1796 iovss.n1736 9.0005
R641 iovss.n1812 iovss.n1736 9.0005
R642 iovss.n1795 iovss.n1736 9.0005
R643 iovss.n1814 iovss.n1736 9.0005
R644 iovss.n1794 iovss.n1736 9.0005
R645 iovss.n1817 iovss.n1736 9.0005
R646 iovss.n1793 iovss.n1736 9.0005
R647 iovss.n1819 iovss.n1736 9.0005
R648 iovss.n1792 iovss.n1736 9.0005
R649 iovss.n1822 iovss.n1736 9.0005
R650 iovss.n1791 iovss.n1736 9.0005
R651 iovss.n1824 iovss.n1736 9.0005
R652 iovss.n1790 iovss.n1736 9.0005
R653 iovss.n1827 iovss.n1736 9.0005
R654 iovss.n1789 iovss.n1736 9.0005
R655 iovss.n1830 iovss.n1736 9.0005
R656 iovss.n1788 iovss.n1736 9.0005
R657 iovss.n1832 iovss.n1736 9.0005
R658 iovss.n1787 iovss.n1736 9.0005
R659 iovss.n1835 iovss.n1736 9.0005
R660 iovss.n1786 iovss.n1736 9.0005
R661 iovss.n1837 iovss.n1736 9.0005
R662 iovss.n1785 iovss.n1736 9.0005
R663 iovss.n1840 iovss.n1736 9.0005
R664 iovss.n1784 iovss.n1736 9.0005
R665 iovss.n1841 iovss.n1736 9.0005
R666 iovss.n1870 iovss.n1736 9.0005
R667 iovss.n2290 iovss.n1736 9.0005
R668 iovss.n2292 iovss.n1726 9.0005
R669 iovss.n1801 iovss.n1726 9.0005
R670 iovss.n1799 iovss.n1726 9.0005
R671 iovss.n1804 iovss.n1726 9.0005
R672 iovss.n1798 iovss.n1726 9.0005
R673 iovss.n1807 iovss.n1726 9.0005
R674 iovss.n1797 iovss.n1726 9.0005
R675 iovss.n1809 iovss.n1726 9.0005
R676 iovss.n1796 iovss.n1726 9.0005
R677 iovss.n1812 iovss.n1726 9.0005
R678 iovss.n1795 iovss.n1726 9.0005
R679 iovss.n1814 iovss.n1726 9.0005
R680 iovss.n1794 iovss.n1726 9.0005
R681 iovss.n1817 iovss.n1726 9.0005
R682 iovss.n1793 iovss.n1726 9.0005
R683 iovss.n1819 iovss.n1726 9.0005
R684 iovss.n1792 iovss.n1726 9.0005
R685 iovss.n1822 iovss.n1726 9.0005
R686 iovss.n1791 iovss.n1726 9.0005
R687 iovss.n1824 iovss.n1726 9.0005
R688 iovss.n1790 iovss.n1726 9.0005
R689 iovss.n1827 iovss.n1726 9.0005
R690 iovss.n1789 iovss.n1726 9.0005
R691 iovss.n1830 iovss.n1726 9.0005
R692 iovss.n1788 iovss.n1726 9.0005
R693 iovss.n1832 iovss.n1726 9.0005
R694 iovss.n1787 iovss.n1726 9.0005
R695 iovss.n1835 iovss.n1726 9.0005
R696 iovss.n1786 iovss.n1726 9.0005
R697 iovss.n1837 iovss.n1726 9.0005
R698 iovss.n1785 iovss.n1726 9.0005
R699 iovss.n1840 iovss.n1726 9.0005
R700 iovss.n1784 iovss.n1726 9.0005
R701 iovss.n1841 iovss.n1726 9.0005
R702 iovss.n1870 iovss.n1726 9.0005
R703 iovss.n2290 iovss.n1726 9.0005
R704 iovss.n2292 iovss.n1737 9.0005
R705 iovss.n1801 iovss.n1737 9.0005
R706 iovss.n1799 iovss.n1737 9.0005
R707 iovss.n1804 iovss.n1737 9.0005
R708 iovss.n1798 iovss.n1737 9.0005
R709 iovss.n1807 iovss.n1737 9.0005
R710 iovss.n1797 iovss.n1737 9.0005
R711 iovss.n1809 iovss.n1737 9.0005
R712 iovss.n1796 iovss.n1737 9.0005
R713 iovss.n1812 iovss.n1737 9.0005
R714 iovss.n1795 iovss.n1737 9.0005
R715 iovss.n1814 iovss.n1737 9.0005
R716 iovss.n1794 iovss.n1737 9.0005
R717 iovss.n1817 iovss.n1737 9.0005
R718 iovss.n1793 iovss.n1737 9.0005
R719 iovss.n1819 iovss.n1737 9.0005
R720 iovss.n1792 iovss.n1737 9.0005
R721 iovss.n1822 iovss.n1737 9.0005
R722 iovss.n1791 iovss.n1737 9.0005
R723 iovss.n1824 iovss.n1737 9.0005
R724 iovss.n1790 iovss.n1737 9.0005
R725 iovss.n1827 iovss.n1737 9.0005
R726 iovss.n1789 iovss.n1737 9.0005
R727 iovss.n1830 iovss.n1737 9.0005
R728 iovss.n1788 iovss.n1737 9.0005
R729 iovss.n1832 iovss.n1737 9.0005
R730 iovss.n1787 iovss.n1737 9.0005
R731 iovss.n1835 iovss.n1737 9.0005
R732 iovss.n1786 iovss.n1737 9.0005
R733 iovss.n1837 iovss.n1737 9.0005
R734 iovss.n1785 iovss.n1737 9.0005
R735 iovss.n1840 iovss.n1737 9.0005
R736 iovss.n1784 iovss.n1737 9.0005
R737 iovss.n1841 iovss.n1737 9.0005
R738 iovss.n1870 iovss.n1737 9.0005
R739 iovss.n2290 iovss.n1737 9.0005
R740 iovss.n2292 iovss.n1725 9.0005
R741 iovss.n1801 iovss.n1725 9.0005
R742 iovss.n1799 iovss.n1725 9.0005
R743 iovss.n1804 iovss.n1725 9.0005
R744 iovss.n1798 iovss.n1725 9.0005
R745 iovss.n1807 iovss.n1725 9.0005
R746 iovss.n1797 iovss.n1725 9.0005
R747 iovss.n1809 iovss.n1725 9.0005
R748 iovss.n1796 iovss.n1725 9.0005
R749 iovss.n1812 iovss.n1725 9.0005
R750 iovss.n1795 iovss.n1725 9.0005
R751 iovss.n1814 iovss.n1725 9.0005
R752 iovss.n1794 iovss.n1725 9.0005
R753 iovss.n1817 iovss.n1725 9.0005
R754 iovss.n1793 iovss.n1725 9.0005
R755 iovss.n1819 iovss.n1725 9.0005
R756 iovss.n1792 iovss.n1725 9.0005
R757 iovss.n1822 iovss.n1725 9.0005
R758 iovss.n1791 iovss.n1725 9.0005
R759 iovss.n1824 iovss.n1725 9.0005
R760 iovss.n1790 iovss.n1725 9.0005
R761 iovss.n1827 iovss.n1725 9.0005
R762 iovss.n1789 iovss.n1725 9.0005
R763 iovss.n1830 iovss.n1725 9.0005
R764 iovss.n1788 iovss.n1725 9.0005
R765 iovss.n1832 iovss.n1725 9.0005
R766 iovss.n1787 iovss.n1725 9.0005
R767 iovss.n1835 iovss.n1725 9.0005
R768 iovss.n1786 iovss.n1725 9.0005
R769 iovss.n1837 iovss.n1725 9.0005
R770 iovss.n1785 iovss.n1725 9.0005
R771 iovss.n1840 iovss.n1725 9.0005
R772 iovss.n1784 iovss.n1725 9.0005
R773 iovss.n1841 iovss.n1725 9.0005
R774 iovss.n1870 iovss.n1725 9.0005
R775 iovss.n2290 iovss.n1725 9.0005
R776 iovss.n2292 iovss.n1738 9.0005
R777 iovss.n1801 iovss.n1738 9.0005
R778 iovss.n1799 iovss.n1738 9.0005
R779 iovss.n1804 iovss.n1738 9.0005
R780 iovss.n1798 iovss.n1738 9.0005
R781 iovss.n1807 iovss.n1738 9.0005
R782 iovss.n1797 iovss.n1738 9.0005
R783 iovss.n1809 iovss.n1738 9.0005
R784 iovss.n1796 iovss.n1738 9.0005
R785 iovss.n1812 iovss.n1738 9.0005
R786 iovss.n1795 iovss.n1738 9.0005
R787 iovss.n1814 iovss.n1738 9.0005
R788 iovss.n1794 iovss.n1738 9.0005
R789 iovss.n1817 iovss.n1738 9.0005
R790 iovss.n1793 iovss.n1738 9.0005
R791 iovss.n1819 iovss.n1738 9.0005
R792 iovss.n1792 iovss.n1738 9.0005
R793 iovss.n1822 iovss.n1738 9.0005
R794 iovss.n1791 iovss.n1738 9.0005
R795 iovss.n1824 iovss.n1738 9.0005
R796 iovss.n1790 iovss.n1738 9.0005
R797 iovss.n1827 iovss.n1738 9.0005
R798 iovss.n1789 iovss.n1738 9.0005
R799 iovss.n1830 iovss.n1738 9.0005
R800 iovss.n1788 iovss.n1738 9.0005
R801 iovss.n1832 iovss.n1738 9.0005
R802 iovss.n1787 iovss.n1738 9.0005
R803 iovss.n1835 iovss.n1738 9.0005
R804 iovss.n1786 iovss.n1738 9.0005
R805 iovss.n1837 iovss.n1738 9.0005
R806 iovss.n1785 iovss.n1738 9.0005
R807 iovss.n1840 iovss.n1738 9.0005
R808 iovss.n1784 iovss.n1738 9.0005
R809 iovss.n1841 iovss.n1738 9.0005
R810 iovss.n1870 iovss.n1738 9.0005
R811 iovss.n2290 iovss.n1738 9.0005
R812 iovss.n2292 iovss.n1724 9.0005
R813 iovss.n1801 iovss.n1724 9.0005
R814 iovss.n1799 iovss.n1724 9.0005
R815 iovss.n1804 iovss.n1724 9.0005
R816 iovss.n1798 iovss.n1724 9.0005
R817 iovss.n1807 iovss.n1724 9.0005
R818 iovss.n1797 iovss.n1724 9.0005
R819 iovss.n1809 iovss.n1724 9.0005
R820 iovss.n1796 iovss.n1724 9.0005
R821 iovss.n1812 iovss.n1724 9.0005
R822 iovss.n1795 iovss.n1724 9.0005
R823 iovss.n1814 iovss.n1724 9.0005
R824 iovss.n1794 iovss.n1724 9.0005
R825 iovss.n1817 iovss.n1724 9.0005
R826 iovss.n1793 iovss.n1724 9.0005