* NGSPICE file created from sg13g2_IOPadTriOut30mA_flat.ext - technology: ihp-sg13g2

.subckt sg13g2_IOPadTriOut30mA_flat c2p_en c2p pad vdd vss iovdd iovss
X0 sg13g2_GateDecode_0.pgate.t2 iovdd.t0 dpantenna l=0.78u w=0.78u
X1 iovdd.t14 sg13g2_GateDecode_0.pgate.t3 pad.t10 iovdd.t0 sg13_hv_pmos ad=2.1312p pd=7.3u as=3.9294p ps=7.84u w=6.66u l=0.6u
X2 iovdd.t11 sg13g2_GateDecode_0.pgate.t4 pad.t13 iovdd.t0 sg13_hv_pmos ad=2.1312p pd=7.3u as=3.9294p ps=7.84u w=6.66u l=0.6u
X3 iovss sg13g2_GateDecode_0.ngate.t2 pad.t21 iovss sg13_hv_nmos ad=1.408p pd=5.04u as=2.596p ps=5.58u w=4.4u l=0.6u
X4 pad.t5 sg13g2_GateDecode_0.pgate.t5 iovdd.t28 iovdd.t0 sg13_hv_pmos ad=3.9294p pd=7.84u as=3.1302p ps=14.26u w=6.66u l=0.6u
X5 iovdd.t8 sg13g2_GateDecode_0.pgate.t6 pad.t8 iovdd.t0 sg13_hv_pmos ad=2.1312p pd=7.3u as=3.9294p ps=7.84u w=6.66u l=0.6u
X6 sg13g2_GateDecode_0.sg13g2_io_nand2_x1_0.nq.t1 c2p_en.t0 a_8230_33842# iovss sg13_lv_nmos ad=1.4148p pd=8.58u as=0.7467p ps=4.31u w=3.93u l=0.13u
X7 pad.t15 sg13g2_GateDecode_0.pgate.t7 iovdd.t16 iovdd.t0 sg13_hv_pmos ad=4.9284p pd=14.8u as=2.1312p ps=7.3u w=6.66u l=0.6u
X8 iovdd.t15 sg13g2_GateDecode_0.pgate.t4 pad.t12 iovdd.t0 sg13_hv_pmos ad=2.1312p pd=7.3u as=3.9294p ps=7.84u w=6.66u l=0.6u
X9 iovss pad.t24 dantenna l=1.26u w=27.78u
X10 pad.t23 sg13g2_GateDecode_0.ngate.t3 iovss iovss sg13_hv_nmos ad=3.256p pd=10.28u as=1.408p ps=5.04u w=4.4u l=0.6u
X11 pad.t17 sg13g2_GateDecode_0.ngate.t4 iovss iovss sg13_hv_nmos ad=2.596p pd=5.58u as=1.408p ps=5.04u w=4.4u l=0.6u
X12 iovss sg13g2_GateDecode_0.ngate.t5 pad.t18 iovss sg13_hv_nmos ad=1.408p pd=5.04u as=2.596p ps=5.58u w=4.4u l=0.6u
X13 iovss sg13g2_GateDecode_0.sg13g2_io_inv_x1_0.nq sg13g2_GateDecode_0.sg13g2_io_nor2_x1_0.nq iovss sg13_lv_nmos ad=1.4148p pd=8.58u as=0.7467p ps=4.31u w=3.93u l=0.13u
X14 a_7724_30170# sg13g2_GateDecode_0.sg13g2_io_nor2_x1_0.nq iovss iovss sg13_hv_nmos ad=0.646p pd=4.48u as=0.361p ps=2.28u w=1.9u l=0.45u
X15 iovdd a_7724_30170# a_7656_30206# iovdd sg13_hv_pmos ad=57f pd=0.68u as=0.102p ps=1.28u w=0.3u l=0.45u
X16 pad.t4 sg13g2_GateDecode_0.pgate.t5 iovdd.t25 iovdd.t0 sg13_hv_pmos ad=3.9294p pd=7.84u as=3.1302p ps=14.26u w=6.66u l=0.6u
X17 iovdd.t1 sg13g2_GateDecode_0.pgate.t6 pad.t7 iovdd.t0 sg13_hv_pmos ad=2.1312p pd=7.3u as=3.9294p ps=7.84u w=6.66u l=0.6u
X18 iovdd.t5 sg13g2_GateDecode_0.pgate.t8 pad.t11 iovdd.t0 sg13_hv_pmos ad=2.1312p pd=7.3u as=3.9294p ps=7.84u w=6.66u l=0.6u
X19 iovss sg13g2_GateDecode_0.ngate.t6 pad.t22 iovss sg13_hv_nmos ad=1.408p pd=5.04u as=2.596p ps=5.58u w=4.4u l=0.6u
X20 sg13g2_GateDecode_0.sg13g2_io_nand2_x1_0.nq.t0 c2p.t0 vdd.t8 vdd.t2 sg13_lv_pmos ad=0.8379p pd=4.79u as=1.4994p ps=9.5u w=4.41u l=0.13u
X21 sg13g2_GateDecode_0.ngate.t0 a_7724_30170# iovdd iovdd sg13_hv_pmos ad=1.326p pd=8.48u as=1.326p ps=8.48u w=3.9u l=0.45u
X22 pad.t14 sg13g2_GateDecode_0.pgate.t7 iovdd.t13 iovdd.t0 sg13_hv_pmos ad=4.9284p pd=14.8u as=2.1312p ps=7.3u w=6.66u l=0.6u
X23 iovdd.t12 sg13g2_GateDecode_0.pgate.t9 pad.t2 iovdd.t0 sg13_hv_pmos ad=2.1312p pd=7.3u as=3.9294p ps=7.84u w=6.66u l=0.6u
X24 a_8426_30170# a_8358_30206# iovdd iovdd sg13_hv_pmos ad=0.102p pd=1.28u as=57f ps=0.68u w=0.3u l=0.45u
X25 a_7750_34876# c2p.t1 vdd.t7 vdd.t4 sg13_lv_pmos ad=0.8379p pd=4.79u as=1.4994p ps=9.5u w=4.41u l=0.13u
X26 iovdd.t6 sg13g2_GateDecode_0.pgate.t8 pad.t9 iovdd.t0 sg13_hv_pmos ad=2.1312p pd=7.3u as=3.9294p ps=7.84u w=6.66u l=0.6u
X27 pad.t13 sg13g2_GateDecode_0.pgate.t10 iovdd.t7 iovdd.t0 sg13_hv_pmos ad=3.9294p pd=7.84u as=2.1312p ps=7.3u w=6.66u l=0.6u
X28 pad.t19 sg13g2_GateDecode_0.ngate.t7 iovss iovss sg13_hv_nmos ad=2.596p pd=5.58u as=1.408p ps=5.04u w=4.4u l=0.6u
X29 iovss sg13g2_GateDecode_0.ngate.t8 pad.t16 iovss sg13_hv_nmos ad=1.408p pd=5.04u as=2.596p ps=5.58u w=4.4u l=0.6u
X30 pad.t18 sg13g2_GateDecode_0.ngate.t9 iovss iovss sg13_hv_nmos ad=2.596p pd=5.58u as=1.408p ps=5.04u w=4.4u l=0.6u
X31 iovdd.t3 sg13g2_GateDecode_0.pgate.t9 pad.t0 iovdd.t0 sg13_hv_pmos ad=2.1312p pd=7.3u as=3.9294p ps=7.84u w=6.66u l=0.6u
X32 sg13g2_GateDecode_0.ngate.t1 a_7724_30170# iovss iovss sg13_hv_nmos ad=0.646p pd=4.48u as=0.646p ps=4.48u w=1.9u l=0.45u
X33 vdd.t6 sg13g2_GateDecode_0.sg13g2_io_nand2_x1_0.nq.t2 a_8358_31526# vdd.t5 sg13_lv_pmos ad=1.615p pd=10.18u as=1.615p ps=10.18u w=4.75u l=0.13u
X34 iovss a_8358_31526# a_8358_30206# iovss sg13_hv_nmos ad=0.361p pd=2.28u as=0.646p ps=4.48u w=1.9u l=0.45u
X35 pad.t12 sg13g2_GateDecode_0.pgate.t10 iovdd.t4 iovdd.t0 sg13_hv_pmos ad=3.9294p pd=7.84u as=2.1312p ps=7.3u w=6.66u l=0.6u
X36 pad.t1 sg13g2_GateDecode_0.pgate.t11 iovdd.t11 iovdd.t0 sg13_hv_pmos ad=3.9294p pd=7.84u as=2.1312p ps=7.3u w=6.66u l=0.6u
X37 pad.t21 sg13g2_GateDecode_0.ngate.t10 iovss iovss sg13_hv_nmos ad=2.596p pd=5.58u as=2.068p ps=9.74u w=4.4u l=0.6u
X38 pad.t20 sg13g2_GateDecode_0.ngate.t11 iovss iovss sg13_hv_nmos ad=2.596p pd=5.58u as=1.408p ps=5.04u w=4.4u l=0.6u
X39 sg13g2_GateDecode_0.sg13g2_io_inv_x1_0.nq c2p_en.t1 iovss iovss sg13_lv_nmos ad=1.3362p pd=8.54u as=1.3362p ps=8.54u w=3.93u l=0.13u
X40 pad.t11 sg13g2_GateDecode_0.pgate.t12 iovdd.t2 iovdd.t0 sg13_hv_pmos ad=3.9294p pd=7.84u as=2.1312p ps=7.3u w=6.66u l=0.6u
X41 iovdd.t16 sg13g2_GateDecode_0.pgate.t13 pad.t6 iovdd.t0 sg13_hv_pmos ad=2.1312p pd=7.3u as=3.9294p ps=7.84u w=6.66u l=0.6u
X42 iovss sg13g2_GateDecode_0.sg13g2_io_nand2_x1_0.nq.t2 a_8358_31526# iovss sg13_lv_nmos ad=0.935p pd=6.18u as=0.935p ps=6.18u w=2.75u l=0.13u
X43 iovss sg13g2_GateDecode_0.ngate.t12 dantenna l=0.78u w=0.78u
X44 vdd.t3 c2p_en.t0 sg13g2_GateDecode_0.sg13g2_io_nand2_x1_0.nq.t0 vdd.t2 sg13_lv_pmos ad=1.5876p pd=9.54u as=0.8379p ps=4.79u w=4.41u l=0.13u
X45 pad.t25 iovdd.t31 dpantenna l=1.26u w=27.78u
X46 pad.t10 sg13g2_GateDecode_0.pgate.t11 iovdd.t15 iovdd.t0 sg13_hv_pmos ad=3.9294p pd=7.84u as=2.1312p ps=7.3u w=6.66u l=0.6u
X47 pad.t9 sg13g2_GateDecode_0.pgate.t12 iovdd.t14 iovdd.t0 sg13_hv_pmos ad=3.9294p pd=7.84u as=2.1312p ps=7.3u w=6.66u l=0.6u
X48 iovss sg13g2_GateDecode_0.ngate.t13 pad.t19 iovss sg13_hv_nmos ad=1.408p pd=5.04u as=2.596p ps=5.58u w=4.4u l=0.6u
X49 sg13g2_GateDecode_0.sg13g2_io_nor2_x1_0.nq sg13g2_GateDecode_0.sg13g2_io_inv_x1_0.nq a_7750_34876# vdd.t4 sg13_lv_pmos ad=1.5876p pd=9.54u as=0.8379p ps=4.79u w=4.41u l=0.13u
X50 a_7724_30170# a_7656_30206# iovdd iovdd sg13_hv_pmos ad=0.102p pd=1.28u as=57f ps=0.68u w=0.3u l=0.45u
X51 iovdd.t13 sg13g2_GateDecode_0.pgate.t13 pad.t3 iovdd.t0 sg13_hv_pmos ad=2.1312p pd=7.3u as=3.9294p ps=7.84u w=6.66u l=0.6u
X52 pad.t8 sg13g2_GateDecode_0.pgate.t14 iovdd.t5 iovdd.t0 sg13_hv_pmos ad=3.9294p pd=7.84u as=2.1312p ps=7.3u w=6.66u l=0.6u
X53 iovss sg13g2_GateDecode_0.ngate.t14 pad.t17 iovss sg13_hv_nmos ad=1.408p pd=5.04u as=2.596p ps=5.58u w=4.4u l=0.6u
X54 iovss sg13g2_GateDecode_0.ngate.t15 pad.t20 iovss sg13_hv_nmos ad=1.408p pd=5.04u as=2.596p ps=5.58u w=4.4u l=0.6u
X55 sg13g2_GateDecode_0.pgate.t0 a_8426_30170# iovdd iovdd sg13_hv_pmos ad=1.326p pd=8.48u as=1.326p ps=8.48u w=3.9u l=0.45u
X56 pad.t7 sg13g2_GateDecode_0.pgate.t14 iovdd.t6 iovdd.t0 sg13_hv_pmos ad=3.9294p pd=7.84u as=2.1312p ps=7.3u w=6.66u l=0.6u
X57 vdd.t9 sg13g2_GateDecode_0.sg13g2_io_nor2_x1_0.nq a_7656_31526# vdd.t5 sg13_lv_pmos ad=1.615p pd=10.18u as=1.615p ps=10.18u w=4.75u l=0.13u
X58 pad.t6 sg13g2_GateDecode_0.pgate.t15 iovdd.t12 iovdd.t0 sg13_hv_pmos ad=3.9294p pd=7.84u as=2.1312p ps=7.3u w=6.66u l=0.6u
X59 pad.t26 iovdd.t31 dpantenna l=1.26u w=27.78u
X60 a_8230_33842# c2p.t0 iovss iovss sg13_lv_nmos ad=0.7467p pd=4.31u as=1.3362p ps=8.54u w=3.93u l=0.13u
X61 iovss a_7656_31526# a_7656_30206# iovss sg13_hv_nmos ad=0.361p pd=2.28u as=0.646p ps=4.48u w=1.9u l=0.45u
X62 iovdd.t7 sg13g2_GateDecode_0.pgate.t16 pad.t5 iovdd.t0 sg13_hv_pmos ad=2.1312p pd=7.3u as=3.9294p ps=7.84u w=6.66u l=0.6u
X63 pad.t16 sg13g2_GateDecode_0.ngate.t16 iovss iovss sg13_hv_nmos ad=2.596p pd=5.58u as=1.408p ps=5.04u w=4.4u l=0.6u
X64 iovss sg13g2_GateDecode_0.sg13g2_io_nor2_x1_0.nq a_7656_31526# iovss sg13_lv_nmos ad=0.935p pd=6.18u as=0.935p ps=6.18u w=2.75u l=0.13u
X65 a_8426_30170# sg13g2_GateDecode_0.sg13g2_io_nand2_x1_0.nq.t3 iovss iovss sg13_hv_nmos ad=0.646p pd=4.48u as=0.361p ps=2.28u w=1.9u l=0.45u
X66 iovdd a_8426_30170# a_8358_30206# iovdd sg13_hv_pmos ad=57f pd=0.68u as=0.102p ps=1.28u w=0.3u l=0.45u
X67 iovss pad.t27 dantenna l=1.26u w=27.78u
X68 sg13g2_GateDecode_0.sg13g2_io_nor2_x1_0.nq c2p.t1 iovss iovss sg13_lv_nmos ad=0.7467p pd=4.31u as=1.3362p ps=8.54u w=3.93u l=0.13u
X69 iovdd.t4 sg13g2_GateDecode_0.pgate.t16 pad.t4 iovdd.t0 sg13_hv_pmos ad=2.1312p pd=7.3u as=3.9294p ps=7.84u w=6.66u l=0.6u
X70 pad.t3 sg13g2_GateDecode_0.pgate.t15 iovdd.t3 iovdd.t0 sg13_hv_pmos ad=3.9294p pd=7.84u as=2.1312p ps=7.3u w=6.66u l=0.6u
X71 pad.t2 sg13g2_GateDecode_0.pgate.t17 iovdd.t8 iovdd.t0 sg13_hv_pmos ad=3.9294p pd=7.84u as=2.1312p ps=7.3u w=6.66u l=0.6u
X72 sg13g2_GateDecode_0.sg13g2_io_inv_x1_0.nq c2p_en.t1 vdd.t1 vdd.t0 sg13_lv_pmos ad=1.4994p pd=9.5u as=1.4994p ps=9.5u w=4.41u l=0.13u
X73 sg13g2_GateDecode_0.pgate.t1 a_8426_30170# iovss iovss sg13_hv_nmos ad=0.646p pd=4.48u as=0.646p ps=4.48u w=1.9u l=0.45u
X74 iovdd.t2 sg13g2_GateDecode_0.pgate.t3 pad.t1 iovdd.t0 sg13_hv_pmos ad=2.1312p pd=7.3u as=3.9294p ps=7.84u w=6.66u l=0.6u
X75 pad.t22 sg13g2_GateDecode_0.ngate.t17 iovss iovss sg13_hv_nmos ad=2.596p pd=5.58u as=1.408p ps=5.04u w=4.4u l=0.6u
X76 pad.t0 sg13g2_GateDecode_0.pgate.t17 iovdd.t1 iovdd.t0 sg13_hv_pmos ad=3.9294p pd=7.84u as=2.1312p ps=7.3u w=6.66u l=0.6u
R0 sg13g2_GateDecode_0.sg13g2_LevelUp_1.o sg13g2_GateDecode_0.pgate.n19 38.7086
R1 sg13g2_GateDecode_0.pgate.t0 sg13g2_GateDecode_0.pgate.n0 17.0005
R2 sg13g2_GateDecode_0.pgate.n18 sg13g2_GateDecode_0.pgate.n16 9.58949
R3 sg13g2_GateDecode_0.pgate.n17 sg13g2_GateDecode_0.pgate.n2 9.00605
R4 sg13g2_GateDecode_0.pgate.n19 sg13g2_GateDecode_0.pgate.n18 9.0005
R5 sg13g2_GateDecode_0.pgate.n3 sg13g2_GateDecode_0.pgate.t7 7.94005
R6 sg13g2_GateDecode_0.pgate.n16 sg13g2_GateDecode_0.pgate.t5 7.08755
R7 sg13g2_GateDecode_0.pgate.n3 sg13g2_GateDecode_0.pgate.t13 7.08755
R8 sg13g2_GateDecode_0.pgate.n4 sg13g2_GateDecode_0.pgate.t15 7.08755
R9 sg13g2_GateDecode_0.pgate.n5 sg13g2_GateDecode_0.pgate.t9 7.08755
R10 sg13g2_GateDecode_0.pgate.n6 sg13g2_GateDecode_0.pgate.t17 7.08755
R11 sg13g2_GateDecode_0.pgate.n7 sg13g2_GateDecode_0.pgate.t6 7.08755
R12 sg13g2_GateDecode_0.pgate.n8 sg13g2_GateDecode_0.pgate.t14 7.08755
R13 sg13g2_GateDecode_0.pgate.n9 sg13g2_GateDecode_0.pgate.t8 7.08755
R14 sg13g2_GateDecode_0.pgate.n10 sg13g2_GateDecode_0.pgate.t12 7.08755
R15 sg13g2_GateDecode_0.pgate.n11 sg13g2_GateDecode_0.pgate.t3 7.08755
R16 sg13g2_GateDecode_0.pgate.n12 sg13g2_GateDecode_0.pgate.t11 7.08755
R17 sg13g2_GateDecode_0.pgate.n13 sg13g2_GateDecode_0.pgate.t4 7.08755
R18 sg13g2_GateDecode_0.pgate.n14 sg13g2_GateDecode_0.pgate.t10 7.08755
R19 sg13g2_GateDecode_0.pgate.n15 sg13g2_GateDecode_0.pgate.t16 7.08755
R20 sg13g2_GateDecode_0.pgate.n0 sg13g2_GateDecode_0.pgate.t1 4.53355
R21 sg13g2_GateDecode_0.pgate.n17 sg13g2_GateDecode_0.pgate.t2 4.2615
R22 sg13g2_GateDecode_0.pgate.n1 sg13g2_GateDecode_0.pgate.t0 2.28308
R23 sg13g2_GateDecode_0.sg13g2_LevelUp_1.o sg13g2_GateDecode_0.pgate.n1 1.9798
R24 sg13g2_GateDecode_0.pgate.n4 sg13g2_GateDecode_0.pgate.n3 1.22425
R25 sg13g2_GateDecode_0.pgate.n6 sg13g2_GateDecode_0.pgate.n5 1.22425
R26 sg13g2_GateDecode_0.pgate.n8 sg13g2_GateDecode_0.pgate.n7 1.22425
R27 sg13g2_GateDecode_0.pgate.n10 sg13g2_GateDecode_0.pgate.n9 1.22425
R28 sg13g2_GateDecode_0.pgate.n12 sg13g2_GateDecode_0.pgate.n11 1.22425
R29 sg13g2_GateDecode_0.pgate.n14 sg13g2_GateDecode_0.pgate.n13 1.22425
R30 sg13g2_GateDecode_0.pgate.n16 sg13g2_GateDecode_0.pgate.n15 1.22425
R31 sg13g2_GateDecode_0.pgate.n5 sg13g2_GateDecode_0.pgate.n4 0.853
R32 sg13g2_GateDecode_0.pgate.n7 sg13g2_GateDecode_0.pgate.n6 0.853
R33 sg13g2_GateDecode_0.pgate.n9 sg13g2_GateDecode_0.pgate.n8 0.853
R34 sg13g2_GateDecode_0.pgate.n11 sg13g2_GateDecode_0.pgate.n10 0.853
R35 sg13g2_GateDecode_0.pgate.n13 sg13g2_GateDecode_0.pgate.n12 0.853
R36 sg13g2_GateDecode_0.pgate.n15 sg13g2_GateDecode_0.pgate.n14 0.853
R37 sg13g2_GateDecode_0.pgate.n19 sg13g2_GateDecode_0.pgate.n2 0.2117
R38 sg13g2_GateDecode_0.pgate.n18 sg13g2_GateDecode_0.pgate.n17 0.201404
R39 sg13g2_GateDecode_0.pgate.n2 sg13g2_Clamp_P15N15D_0.gate 0.0841
R40 sg13g2_GateDecode_0.pgate.n1 sg13g2_GateDecode_0.pgate.n0 0.0738333
R41 iovdd.n305 iovdd.n304 10.8089
R42 iovdd.n299 iovdd.n298 10.8089
R43 iovdd.n268 iovdd.n267 10.8089
R44 iovdd.n244 iovdd.n243 10.8089
R45 iovdd.n241 iovdd.n240 10.8089
R46 iovdd.n271 iovdd.n270 10.8089
R47 iovdd.n302 iovdd.n120 10.8089
R48 iovdd.n264 iovdd.n263 10.8089
R49 iovdd.n277 iovdd.n276 9.0005
R50 iovdd.n445 iovdd.n444 9.0005
R51 iovdd.n442 iovdd.n441 9.0005
R52 iovdd.n427 iovdd.n426 9.0005
R53 iovdd.n236 iovdd.n30 9.0005
R54 iovdd.n468 iovdd.n467 9.0005
R55 iovdd.n424 iovdd.n423 9.0005
R56 iovdd.n465 iovdd.n464 9.0005
R57 iovdd.n500 iovdd.n31 5.66717
R58 iovdd.n501 iovdd.n500 5.66717
R59 iovdd.n457 iovdd.n456 5.66717
R60 iovdd.n456 iovdd.n455 5.66717
R61 iovdd.n437 iovdd.n111 5.66717
R62 iovdd.n438 iovdd.n437 5.66717
R63 iovdd.n419 iovdd.n407 5.66717
R64 iovdd.n420 iovdd.n419 5.66717
R65 iovdd.n415 iovdd.n414 5.66717
R66 iovdd.n414 iovdd.n413 5.66717
R67 iovdd.n430 iovdd.n428 4.9805
R68 iovdd.n104 iovdd.n102 4.9805
R69 iovdd.n448 iovdd.n446 4.9805
R70 iovdd.n471 iovdd.n469 4.9805
R71 iovdd.n506 iovdd.n505 4.9805
R72 iovdd.n274 iovdd.n272 4.9805
R73 iovdd.n80 iovdd.n78 4.9805
R74 iovdd.n509 iovdd.n21 4.28068
R75 iovdd.n511 iovdd.n18 4.2505
R76 iovdd.n398 iovdd.n396 3.0005
R77 iovdd.n400 iovdd.n395 3.0005
R78 iovdd.n430 iovdd.n429 3.0005
R79 iovdd.n104 iovdd.n103 3.0005
R80 iovdd.n448 iovdd.n447 3.0005
R81 iovdd.n274 iovdd.n273 3.0005
R82 iovdd.n471 iovdd.n470 3.0005
R83 iovdd.n505 iovdd.n504 3.0005
R84 iovdd.n422 iovdd.n421 3.0005
R85 iovdd.n432 iovdd.n431 3.0005
R86 iovdd.n440 iovdd.n439 3.0005
R87 iovdd.n450 iovdd.n449 3.0005
R88 iovdd.n275 iovdd.n91 3.0005
R89 iovdd.n473 iovdd.n472 3.0005
R90 iovdd.n503 iovdd.n502 3.0005
R91 iovdd.n463 iovdd.n462 3.0005
R92 iovdd.n80 iovdd.n79 3.0005
R93 iovdd.t31 iovdd.n498 2.83433
R94 iovdd.t31 iovdd.n483 2.83433
R95 iovdd.t31 iovdd.n482 2.83433
R96 iovdd.t31 iovdd.n481 2.83433
R97 iovdd.t31 iovdd.n480 2.83433
R98 iovdd.t31 iovdd.n479 2.83433
R99 iovdd.t31 iovdd.n33 2.83433
R100 iovdd.n499 iovdd.t31 2.83433
R101 iovdd.t31 iovdd.n478 2.83433
R102 iovdd.t31 iovdd.n68 2.83433
R103 iovdd.t31 iovdd.n67 2.83433
R104 iovdd.t31 iovdd.n66 2.83433
R105 iovdd.t31 iovdd.n65 2.83433
R106 iovdd.t31 iovdd.n64 2.83433
R107 iovdd.t31 iovdd.n63 2.83433
R108 iovdd.t31 iovdd.n62 2.83433
R109 iovdd.t31 iovdd.n61 2.83433
R110 iovdd.t31 iovdd.n60 2.83433
R111 iovdd.t31 iovdd.n59 2.83433
R112 iovdd.t31 iovdd.n58 2.83433
R113 iovdd.t31 iovdd.n57 2.83433
R114 iovdd.t31 iovdd.n56 2.83433
R115 iovdd.t31 iovdd.n55 2.83433
R116 iovdd.t31 iovdd.n54 2.83433
R117 iovdd.t31 iovdd.n53 2.83433
R118 iovdd.t31 iovdd.n52 2.83433
R119 iovdd.t31 iovdd.n51 2.83433
R120 iovdd.t31 iovdd.n50 2.83433
R121 iovdd.t31 iovdd.n49 2.83433
R122 iovdd.t31 iovdd.n48 2.83433
R123 iovdd.t31 iovdd.n47 2.83433
R124 iovdd.t31 iovdd.n46 2.83433
R125 iovdd.t31 iovdd.n45 2.83433
R126 iovdd.t31 iovdd.n44 2.83433
R127 iovdd.t31 iovdd.n43 2.83433
R128 iovdd.t31 iovdd.n42 2.83433
R129 iovdd.t31 iovdd.n41 2.83433
R130 iovdd.t31 iovdd.n40 2.83433
R131 iovdd.t31 iovdd.n39 2.83433
R132 iovdd.t31 iovdd.n38 2.83433
R133 iovdd.t31 iovdd.n37 2.83433
R134 iovdd.t31 iovdd.n36 2.83433
R135 iovdd.n497 iovdd.n496 2.82693
R136 iovdd.n495 iovdd.n484 2.82693
R137 iovdd.n494 iovdd.n485 2.82693
R138 iovdd.n493 iovdd.n486 2.82693
R139 iovdd.n492 iovdd.n487 2.82693
R140 iovdd.n491 iovdd.n488 2.82693
R141 iovdd.n490 iovdd.n489 2.82693
R142 iovdd.n34 iovdd.n32 2.82693
R143 iovdd.n477 iovdd.n476 2.82693
R144 iovdd.n475 iovdd.n69 2.82693
R145 iovdd.n474 iovdd.n70 2.82693
R146 iovdd.n72 iovdd.n71 2.82693
R147 iovdd.n82 iovdd.n81 2.82693
R148 iovdd.n84 iovdd.n83 2.82693
R149 iovdd.n86 iovdd.n85 2.82693
R150 iovdd.n461 iovdd.n87 2.82693
R151 iovdd.n460 iovdd.n88 2.82693
R152 iovdd.n459 iovdd.n89 2.82693
R153 iovdd.n458 iovdd.n90 2.82693
R154 iovdd.n454 iovdd.n92 2.82693
R155 iovdd.n453 iovdd.n93 2.82693
R156 iovdd.n452 iovdd.n94 2.82693
R157 iovdd.n451 iovdd.n95 2.82693
R158 iovdd.n97 iovdd.n96 2.82693
R159 iovdd.n106 iovdd.n105 2.82693
R160 iovdd.n108 iovdd.n107 2.82693
R161 iovdd.n110 iovdd.n109 2.82693
R162 iovdd.n436 iovdd.n112 2.82693
R163 iovdd.n435 iovdd.n113 2.82693
R164 iovdd.n434 iovdd.n114 2.82693
R165 iovdd.n433 iovdd.n115 2.82693
R166 iovdd.n117 iovdd.n116 2.82693
R167 iovdd.n402 iovdd.n401 2.82693
R168 iovdd.n404 iovdd.n403 2.82693
R169 iovdd.n406 iovdd.n405 2.82693
R170 iovdd.n418 iovdd.n408 2.82693
R171 iovdd.n417 iovdd.n409 2.82693
R172 iovdd.n416 iovdd.n410 2.82693
R173 iovdd.n511 iovdd.n2 2.41731
R174 iovdd.n512 iovdd.n511 2.1192
R175 iovdd.n511 iovdd.n15 2.11861
R176 iovdd.n100 iovdd.n75 1.98828
R177 iovdd.n300 iovdd.n75 1.98792
R178 iovdd.n431 iovdd.n430 1.9805
R179 iovdd.n440 iovdd.n104 1.9805
R180 iovdd.n449 iovdd.n448 1.9805
R181 iovdd.n472 iovdd.n471 1.9805
R182 iovdd.n505 iovdd.n503 1.9805
R183 iovdd.n275 iovdd.n274 1.9805
R184 iovdd.n463 iovdd.n80 1.9805
R185 iovdd.t31 iovdd.n35 1.89
R186 iovdd.n431 iovdd.n427 1.8749
R187 iovdd.n441 iovdd.n440 1.8749
R188 iovdd.n449 iovdd.n445 1.8749
R189 iovdd.n472 iovdd.n468 1.8749
R190 iovdd.n503 iovdd.n30 1.8749
R191 iovdd.n277 iovdd.n275 1.8749
R192 iovdd.n464 iovdd.n463 1.8749
R193 iovdd.n427 iovdd.n118 1.8089
R194 iovdd.n441 iovdd.n101 1.8089
R195 iovdd.n445 iovdd.n98 1.8089
R196 iovdd.n468 iovdd.n73 1.8089
R197 iovdd.n238 iovdd.n30 1.8089
R198 iovdd.n278 iovdd.n277 1.8089
R199 iovdd.n423 iovdd.n393 1.8089
R200 iovdd.n464 iovdd.n77 1.8089
R201 iovdd.n263 iovdd.t1 1.76518
R202 iovdd.n77 iovdd.t8 1.76518
R203 iovdd.n271 iovdd.t6 1.76518
R204 iovdd.n278 iovdd.t5 1.76518
R205 iovdd.n305 iovdd.t4 1.76518
R206 iovdd.n118 iovdd.t7 1.76518
R207 iovdd.n298 iovdd.t15 1.76518
R208 iovdd.n101 iovdd.t11 1.76518
R209 iovdd.n267 iovdd.t14 1.76518
R210 iovdd.n98 iovdd.t2 1.76518
R211 iovdd.n244 iovdd.t3 1.76518
R212 iovdd.n73 iovdd.t12 1.76518
R213 iovdd.n240 iovdd.t13 1.76518
R214 iovdd.n238 iovdd.t16 1.76518
R215 iovdd.n120 iovdd.t25 1.76484
R216 iovdd.n393 iovdd.t28 1.76484
R217 iovdd.n425 iovdd.n75 1.73634
R218 iovdd.n99 iovdd.n75 1.73634
R219 iovdd.n466 iovdd.n75 1.73634
R220 iovdd.n443 iovdd.n75 1.73611
R221 iovdd.n76 iovdd.n75 1.73611
R222 iovdd.n75 iovdd.n74 1.73611
R223 iovdd.n133 iovdd.n75 1.73611
R224 iovdd.n265 iovdd.n75 1.73611
R225 iovdd.n242 iovdd.n75 1.73611
R226 iovdd.n303 iovdd.n75 1.73595
R227 iovdd.n269 iovdd.n75 1.73595
R228 iovdd.n144 iovdd.n75 1.73595
R229 iovdd.t31 iovdd.n1 1.70106
R230 iovdd.n412 iovdd.n411 1.68243
R231 iovdd.n423 iovdd.n422 1.60815
R232 iovdd.n306 iovdd.n305 1.5625
R233 iovdd.n306 iovdd.n118 1.5625
R234 iovdd.n298 iovdd.n297 1.5625
R235 iovdd.n297 iovdd.n101 1.5625
R236 iovdd.n267 iovdd.n266 1.5625
R237 iovdd.n266 iovdd.n98 1.5625
R238 iovdd.n245 iovdd.n244 1.5625
R239 iovdd.n245 iovdd.n73 1.5625
R240 iovdd.n240 iovdd.n239 1.5625
R241 iovdd.n239 iovdd.n238 1.5625
R242 iovdd.n279 iovdd.n271 1.5625
R243 iovdd.n279 iovdd.n278 1.5625
R244 iovdd.n392 iovdd.n120 1.5625
R245 iovdd.n393 iovdd.n392 1.5625
R246 iovdd.n263 iovdd.n262 1.5625
R247 iovdd.n262 iovdd.n77 1.5625
R248 iovdd iovdd.n119 1.43219
R249 iovdd.n241 iovdd.n237 1.42534
R250 iovdd.n237 iovdd.n236 1.42433
R251 iovdd.n301 iovdd 1.39634
R252 iovdd.n424 iovdd.n119 1.33976
R253 iovdd.n302 iovdd.n301 1.33311
R254 iovdd.n511 iovdd.n14 1.28534
R255 iovdd.n511 iovdd.n20 1.28534
R256 iovdd.n355 iovdd.n351 0.826084
R257 iovdd.n188 iovdd.n181 0.826084
R258 iovdd.n358 iovdd.n350 0.818682
R259 iovdd.n349 iovdd.n342 0.818682
R260 iovdd.n365 iovdd.n341 0.818682
R261 iovdd.n366 iovdd.n340 0.818682
R262 iovdd.n339 iovdd.n332 0.818682
R263 iovdd.n373 iovdd.n331 0.818682
R264 iovdd.n374 iovdd.n330 0.818682
R265 iovdd.n329 iovdd.n322 0.818682
R266 iovdd.n381 iovdd.n321 0.818682
R267 iovdd.n382 iovdd.n320 0.818682
R268 iovdd.n124 iovdd.n122 0.818682
R269 iovdd.n390 iovdd.n389 0.818682
R270 iovdd.n123 iovdd.n121 0.818682
R271 iovdd.n309 iovdd.n308 0.818682
R272 iovdd.n132 iovdd.n131 0.818682
R273 iovdd.n295 iovdd.n294 0.818682
R274 iovdd.n281 iovdd.n135 0.818682
R275 iovdd.n283 iovdd.n282 0.818682
R276 iovdd.n143 iovdd.n142 0.818682
R277 iovdd.n260 iovdd.n259 0.818682
R278 iovdd.n146 iovdd.n145 0.818682
R279 iovdd.n248 iovdd.n247 0.818682
R280 iovdd.n234 iovdd.n153 0.818682
R281 iovdd.n233 iovdd.n232 0.818682
R282 iovdd.n155 iovdd.n154 0.818682
R283 iovdd.n221 iovdd.n220 0.818682
R284 iovdd.n219 iovdd.n162 0.818682
R285 iovdd.n218 iovdd.n217 0.818682
R286 iovdd.n164 iovdd.n163 0.818682
R287 iovdd.n206 iovdd.n205 0.818682
R288 iovdd.n204 iovdd.n171 0.818682
R289 iovdd.n203 iovdd.n202 0.818682
R290 iovdd.n173 iovdd.n172 0.818682
R291 iovdd.n191 iovdd.n190 0.818682
R292 iovdd.n189 iovdd.n180 0.818682
R293 iovdd.n187 iovdd.n186 0.818682
R294 iovdd.n182 iovdd.n180 0.818682
R295 iovdd.n192 iovdd.n191 0.818682
R296 iovdd.n193 iovdd.n173 0.818682
R297 iovdd.n202 iovdd.n201 0.818682
R298 iovdd.n175 iovdd.n171 0.818682
R299 iovdd.n207 iovdd.n206 0.818682
R300 iovdd.n208 iovdd.n164 0.818682
R301 iovdd.n217 iovdd.n216 0.818682
R302 iovdd.n166 iovdd.n162 0.818682
R303 iovdd.n222 iovdd.n221 0.818682
R304 iovdd.n223 iovdd.n155 0.818682
R305 iovdd.n232 iovdd.n231 0.818682
R306 iovdd.n157 iovdd.n153 0.818682
R307 iovdd.n249 iovdd.n248 0.818682
R308 iovdd.n250 iovdd.n146 0.818682
R309 iovdd.n259 iovdd.n258 0.818682
R310 iovdd.n148 iovdd.n142 0.818682
R311 iovdd.n284 iovdd.n283 0.818682
R312 iovdd.n285 iovdd.n135 0.818682
R313 iovdd.n294 iovdd.n293 0.818682
R314 iovdd.n137 iovdd.n131 0.818682
R315 iovdd.n310 iovdd.n309 0.818682
R316 iovdd.n311 iovdd.n123 0.818682
R317 iovdd.n389 iovdd.n388 0.818682
R318 iovdd.n126 iovdd.n124 0.818682
R319 iovdd.n383 iovdd.n382 0.818682
R320 iovdd.n381 iovdd.n380 0.818682
R321 iovdd.n323 iovdd.n322 0.818682
R322 iovdd.n375 iovdd.n374 0.818682
R323 iovdd.n373 iovdd.n372 0.818682
R324 iovdd.n333 iovdd.n332 0.818682
R325 iovdd.n367 iovdd.n366 0.818682
R326 iovdd.n365 iovdd.n364 0.818682
R327 iovdd.n343 iovdd.n342 0.818682
R328 iovdd.n359 iovdd.n358 0.818682
R329 iovdd.n357 iovdd.n356 0.818682
R330 iovdd.n511 iovdd.n22 0.671789
R331 iovdd.n511 iovdd.n6 0.671602
R332 iovdd.n511 iovdd.n28 0.671602
R333 iovdd.n511 iovdd.n12 0.671423
R334 iovdd.n511 iovdd.n24 0.588672
R335 iovdd.n511 iovdd.n26 0.588672
R336 iovdd.n511 iovdd.n29 0.588672
R337 iovdd.n511 iovdd.n11 0.588437
R338 iovdd.n511 iovdd.n9 0.588437
R339 iovdd.n511 iovdd.n7 0.588437
R340 iovdd.n511 iovdd.n23 0.588437
R341 iovdd.n511 iovdd.n25 0.588437
R342 iovdd.n511 iovdd.n27 0.588437
R343 iovdd.n511 iovdd.n10 0.588281
R344 iovdd.n511 iovdd.n8 0.588281
R345 iovdd.n511 iovdd.n5 0.588281
R346 iovdd.n511 iovdd.n3 0.588266
R347 iovdd.n444 iovdd.n443 0.515695
R348 iovdd.n268 iovdd.n133 0.515695
R349 iovdd.n425 iovdd.n424 0.513735
R350 iovdd.n303 iovdd.n302 0.513312
R351 iovdd.n511 iovdd.n510 0.503491
R352 iovdd.n270 iovdd.n269 0.502871
R353 iovdd.n276 iovdd.n99 0.502476
R354 iovdd.n511 iovdd.n17 0.502128
R355 iovdd.n465 iovdd.n76 0.489812
R356 iovdd.n265 iovdd.n264 0.489812
R357 iovdd.n467 iovdd.n74 0.481088
R358 iovdd.n243 iovdd.n242 0.481088
R359 iovdd.n300 iovdd.n299 0.479418
R360 iovdd.n442 iovdd.n100 0.479034
R361 iovdd.n426 iovdd.n100 0.477001
R362 iovdd.n243 iovdd.n144 0.476989
R363 iovdd.n304 iovdd.n300 0.476595
R364 iovdd.n467 iovdd.n466 0.476594
R365 iovdd.n466 iovdd.n465 0.468441
R366 iovdd.n264 iovdd.n144 0.468018
R367 iovdd.n236 iovdd.n74 0.46393
R368 iovdd.n242 iovdd.n241 0.46393
R369 iovdd.n276 iovdd.n76 0.455206
R370 iovdd.n270 iovdd.n265 0.455206
R371 iovdd.n444 iovdd.n99 0.442559
R372 iovdd.n269 iovdd.n268 0.442135
R373 iovdd.n304 iovdd.n303 0.431695
R374 iovdd.n426 iovdd.n425 0.4313
R375 iovdd.n443 iovdd.n442 0.429323
R376 iovdd.n299 iovdd.n133 0.429323
R377 iovdd.n189 iovdd.n188 0.416993
R378 iovdd.n351 iovdd.n350 0.416993
R379 iovdd.n507 iovdd.n506 0.328683
R380 iovdd.n508 iovdd.n507 0.270343
R381 iovdd.n508 iovdd.n4 0.258522
R382 iovdd.n511 iovdd.n4 0.254672
R383 iovdd.n398 iovdd.n397 0.2505
R384 iovdd.n400 iovdd.n399 0.2505
R385 iovdd.n422 iovdd.n394 0.2505
R386 iovdd.n504 iovdd.n4 0.227256
R387 iovdd.n183 iovdd.n181 0.201704
R388 iovdd.n355 iovdd.n354 0.2005
R389 iovdd.n348 iovdd.n347 0.2005
R390 iovdd.n361 iovdd.n360 0.2005
R391 iovdd.n363 iovdd.n362 0.2005
R392 iovdd.n338 iovdd.n337 0.2005
R393 iovdd.n369 iovdd.n368 0.2005
R394 iovdd.n371 iovdd.n370 0.2005
R395 iovdd.n328 iovdd.n327 0.2005
R396 iovdd.n377 iovdd.n376 0.2005
R397 iovdd.n379 iovdd.n378 0.2005
R398 iovdd.n319 iovdd.n318 0.2005
R399 iovdd.n385 iovdd.n384 0.2005
R400 iovdd.n387 iovdd.n386 0.2005
R401 iovdd.n127 iovdd.n125 0.2005
R402 iovdd.n313 iovdd.n312 0.2005
R403 iovdd.n130 iovdd.n129 0.2005
R404 iovdd.n292 iovdd.n291 0.2005
R405 iovdd.n138 iovdd.n136 0.2005
R406 iovdd.n287 iovdd.n286 0.2005
R407 iovdd.n141 iovdd.n140 0.2005
R408 iovdd.n257 iovdd.n256 0.2005
R409 iovdd.n149 iovdd.n147 0.2005
R410 iovdd.n252 iovdd.n251 0.2005
R411 iovdd.n152 iovdd.n151 0.2005
R412 iovdd.n230 iovdd.n229 0.2005
R413 iovdd.n158 iovdd.n156 0.2005
R414 iovdd.n225 iovdd.n224 0.2005
R415 iovdd.n161 iovdd.n160 0.2005
R416 iovdd.n215 iovdd.n214 0.2005
R417 iovdd.n167 iovdd.n165 0.2005
R418 iovdd.n210 iovdd.n209 0.2005
R419 iovdd.n170 iovdd.n169 0.2005
R420 iovdd.n200 iovdd.n199 0.2005
R421 iovdd.n176 iovdd.n174 0.2005
R422 iovdd.n195 iovdd.n194 0.2005
R423 iovdd.n179 iovdd.n178 0.2005
R424 iovdd.n185 iovdd.n184 0.2005
R425 iovdd.n262 iovdd.n261 0.191989
R426 iovdd.n280 iovdd.n279 0.191989
R427 iovdd.n266 iovdd.n134 0.191989
R428 iovdd.n297 iovdd.n296 0.191989
R429 iovdd.n307 iovdd.n306 0.191989
R430 iovdd.n392 iovdd.n391 0.191989
R431 iovdd.n239 iovdd.n235 0.191989
R432 iovdd.n246 iovdd.n245 0.191989
R433 iovdd.n17 iovdd.n16 0.156542
R434 iovdd.n510 iovdd.n508 0.153056
R435 iovdd.n3 iovdd.n0 0.144604
R436 iovdd.n504 iovdd.n5 0.143944
R437 iovdd.n506 iovdd.n29 0.14355
R438 iovdd.n272 iovdd.n27 0.142174
R439 iovdd.n273 iovdd.n7 0.142174
R440 iovdd.n16 iovdd.n3 0.139796
R441 iovdd.n446 iovdd.n26 0.138974
R442 iovdd.n447 iovdd.n8 0.138556
R443 iovdd.n102 iovdd.n25 0.13519
R444 iovdd.n103 iovdd.n9 0.13519
R445 iovdd.n429 iovdd.n11 0.135097
R446 iovdd.n428 iovdd.n23 0.135097
R447 iovdd.n470 iovdd.n6 0.133441
R448 iovdd.n469 iovdd.n28 0.133441
R449 iovdd.n428 iovdd.n24 0.13199
R450 iovdd.n103 iovdd.n10 0.131722
R451 iovdd.n78 iovdd.n28 0.131626
R452 iovdd.n79 iovdd.n6 0.131626
R453 iovdd.n429 iovdd.n10 0.131572
R454 iovdd.n102 iovdd.n24 0.131328
R455 iovdd.n396 iovdd.n23 0.128206
R456 iovdd.n395 iovdd.n11 0.128206
R457 iovdd.n447 iovdd.n9 0.128113
R458 iovdd.n446 iovdd.n25 0.128113
R459 iovdd.n510 iovdd.n509 0.127471
R460 iovdd.n395 iovdd.n12 0.124896
R461 iovdd.n273 iovdd.n8 0.124738
R462 iovdd.n19 iovdd.n17 0.124655
R463 iovdd.n396 iovdd.n22 0.124514
R464 iovdd.n272 iovdd.n26 0.124344
R465 iovdd.n79 iovdd.n7 0.121129
R466 iovdd.n78 iovdd.n27 0.121129
R467 iovdd.n469 iovdd.n29 0.119767
R468 iovdd.n470 iovdd.n5 0.11935
R469 iovdd.n397 iovdd.n22 0.117846
R470 iovdd.n399 iovdd.n12 0.117444
R471 iovdd.n354 iovdd.n353 0.1105
R472 iovdd.n352 iovdd.n347 0.1105
R473 iovdd.n361 iovdd.n346 0.1105
R474 iovdd.n362 iovdd.n345 0.1105
R475 iovdd.n344 iovdd.n337 0.1105
R476 iovdd.n369 iovdd.n336 0.1105
R477 iovdd.n370 iovdd.n335 0.1105
R478 iovdd.n334 iovdd.n327 0.1105
R479 iovdd.n377 iovdd.n326 0.1105
R480 iovdd.n378 iovdd.n325 0.1105
R481 iovdd.n324 iovdd.n318 0.1105
R482 iovdd.n385 iovdd.n317 0.1105
R483 iovdd.n386 iovdd.n316 0.1105
R484 iovdd.n315 iovdd.n127 0.1105
R485 iovdd.n314 iovdd.n313 0.1105
R486 iovdd.n129 iovdd.n128 0.1105
R487 iovdd.n291 iovdd.n290 0.1105
R488 iovdd.n289 iovdd.n138 0.1105
R489 iovdd.n288 iovdd.n287 0.1105
R490 iovdd.n140 iovdd.n139 0.1105
R491 iovdd.n256 iovdd.n255 0.1105
R492 iovdd.n254 iovdd.n149 0.1105
R493 iovdd.n253 iovdd.n252 0.1105
R494 iovdd.n151 iovdd.n150 0.1105
R495 iovdd.n229 iovdd.n228 0.1105
R496 iovdd.n227 iovdd.n158 0.1105
R497 iovdd.n226 iovdd.n225 0.1105
R498 iovdd.n160 iovdd.n159 0.1105
R499 iovdd.n214 iovdd.n213 0.1105
R500 iovdd.n212 iovdd.n167 0.1105
R501 iovdd.n211 iovdd.n210 0.1105
R502 iovdd.n169 iovdd.n168 0.1105
R503 iovdd.n199 iovdd.n198 0.1105
R504 iovdd.n197 iovdd.n176 0.1105
R505 iovdd.n196 iovdd.n195 0.1105
R506 iovdd.n178 iovdd.n177 0.1105
R507 iovdd.n511 iovdd.n507 0.0888927
R508 iovdd.n16 iovdd.n14 0.0878254
R509 iovdd.n20 iovdd.n19 0.0878254
R510 iovdd.n496 iovdd.n2 0.0776874
R511 iovdd.n422 iovdd.n400 0.0751466
R512 iovdd.n400 iovdd.n398 0.0751466
R513 iovdd.n397 iovdd.n20 0.0732046
R514 iovdd.n399 iovdd.n14 0.0732046
R515 iovdd.n413 iovdd.n412 0.0727627
R516 iovdd.n412 iovdd.n0 0.0709471
R517 iovdd.n496 iovdd.n495 0.0607875
R518 iovdd.n495 iovdd.n494 0.0607875
R519 iovdd.n494 iovdd.n493 0.0607875
R520 iovdd.n493 iovdd.n492 0.0607875
R521 iovdd.n492 iovdd.n491 0.0607875
R522 iovdd.n491 iovdd.n490 0.0607875
R523 iovdd.n476 iovdd.n32 0.0607875
R524 iovdd.n476 iovdd.n475 0.0607875
R525 iovdd.n475 iovdd.n474 0.0607875
R526 iovdd.n82 iovdd.n72 0.0607875
R527 iovdd.n84 iovdd.n82 0.0607875
R528 iovdd.n86 iovdd.n84 0.0607875
R529 iovdd.n461 iovdd.n460 0.0607875
R530 iovdd.n460 iovdd.n459 0.0607875
R531 iovdd.n459 iovdd.n458 0.0607875
R532 iovdd.n454 iovdd.n453 0.0607875
R533 iovdd.n453 iovdd.n452 0.0607875
R534 iovdd.n452 iovdd.n451 0.0607875
R535 iovdd.n106 iovdd.n97 0.0607875
R536 iovdd.n108 iovdd.n106 0.0607875
R537 iovdd.n110 iovdd.n108 0.0607875
R538 iovdd.n436 iovdd.n435 0.0607875
R539 iovdd.n435 iovdd.n434 0.0607875
R540 iovdd.n434 iovdd.n433 0.0607875
R541 iovdd.n402 iovdd.n117 0.0607875
R542 iovdd.n404 iovdd.n402 0.0607875
R543 iovdd.n406 iovdd.n404 0.0607875
R544 iovdd.n418 iovdd.n417 0.0607875
R545 iovdd.n417 iovdd.n416 0.0607875
R546 iovdd.n183 iovdd.n177 0.0568704
R547 iovdd.n509 iovdd.n2 0.0540779
R548 iovdd.t31 iovdd.n21 0.0491586
R549 iovdd.t31 iovdd.n13 0.048619
R550 iovdd.n490 iovdd.n31 0.045485
R551 iovdd.n501 iovdd.n32 0.045485