* NGSPICE file created from sg13g2_IOPadInOut30mA_flat.ext - technology: ihp-sg13g2

.subckt sg13g2_IOPadInOut30mA_flat p2c c2p_en c2p pad vdd vss iovdd iovss
X0 vdd.t11 a_12038_31490# p2c.t1 vdd.t0 sg13_lv_pmos ad=1.615p pd=10.18u as=1.615p ps=10.18u w=4.75u l=0.13u
X1 sg13g2_GateDecode_0.pgate.t2 iovdd.t14 dpantenna l=0.78u w=0.78u
X2 iovdd.t26 sg13g2_GateDecode_0.pgate.t3 pad.t17 iovdd.t14 sg13_hv_pmos ad=2.1312p pd=7.3u as=3.9294p ps=7.84u w=6.66u l=0.6u
X3 iovdd.t16 sg13g2_GateDecode_0.pgate.t4 pad.t20 iovdd.t14 sg13_hv_pmos ad=2.1312p pd=7.3u as=3.9294p ps=7.84u w=6.66u l=0.6u
X4 iovss sg13g2_GateDecode_0.ngate.t2 pad.t4 iovss sg13_hv_nmos ad=1.408p pd=5.04u as=2.596p ps=5.58u w=4.4u l=0.6u
X5 pad.t12 sg13g2_GateDecode_0.pgate.t5 iovdd.t42 iovdd.t14 sg13_hv_pmos ad=3.9294p pd=7.84u as=3.1302p ps=14.26u w=6.66u l=0.6u
X6 iovdd.t22 sg13g2_GateDecode_0.pgate.t6 pad.t15 iovdd.t14 sg13_hv_pmos ad=2.1312p pd=7.3u as=3.9294p ps=7.84u w=6.66u l=0.6u
X7 pad.t22 sg13g2_GateDecode_0.pgate.t7 iovdd.t28 iovdd.t14 sg13_hv_pmos ad=4.9284p pd=14.8u as=2.1312p ps=7.3u w=6.66u l=0.6u
X8 iovss a_12038_31490# p2c.t0 iovss sg13_lv_nmos ad=0.935p pd=6.18u as=0.935p ps=6.18u w=2.75u l=0.13u
X9 iovdd.t27 sg13g2_GateDecode_0.pgate.t4 pad.t19 iovdd.t14 sg13_hv_pmos ad=2.1312p pd=7.3u as=3.9294p ps=7.84u w=6.66u l=0.6u
X10 iovss pad.t25 dantenna l=1.26u w=27.78u
X11 pad.t2 sg13g2_GateDecode_0.ngate.t3 iovss iovss sg13_hv_nmos ad=3.256p pd=10.28u as=1.408p ps=5.04u w=4.4u l=0.6u
X12 pad.t6 sg13g2_GateDecode_0.ngate.t4 iovss iovss sg13_hv_nmos ad=2.596p pd=5.58u as=1.408p ps=5.04u w=4.4u l=0.6u
X13 iovss sg13g2_GateDecode_0.ngate.t5 pad.t5 iovss sg13_hv_nmos ad=1.408p pd=5.04u as=2.596p ps=5.58u w=4.4u l=0.6u
X14 sg13g2_GateDecode_0.sg13g2_io_nand2_x1_0.nq.t1 c2p_en.t0 a_4230_33842# iovss sg13_lv_nmos ad=1.4148p pd=8.58u as=0.7467p ps=4.31u w=3.93u l=0.13u
X15 iovss sg13g2_LevelDown_0.sg13g2_SecondaryProtection_0.core dantenna l=3.1u w=0.64u
X16 pad.t11 sg13g2_GateDecode_0.pgate.t5 iovdd.t40 iovdd.t14 sg13_hv_pmos ad=3.9294p pd=7.84u as=3.1302p ps=14.26u w=6.66u l=0.6u
X17 iovdd.t15 sg13g2_GateDecode_0.pgate.t6 pad.t14 iovdd.t14 sg13_hv_pmos ad=2.1312p pd=7.3u as=3.9294p ps=7.84u w=6.66u l=0.6u
X18 iovdd.t24 sg13g2_GateDecode_0.pgate.t8 pad.t18 iovdd.t14 sg13_hv_pmos ad=2.1312p pd=7.3u as=3.9294p ps=7.84u w=6.66u l=0.6u
X19 iovss sg13g2_GateDecode_0.ngate.t6 pad.t23 iovss sg13_hv_nmos ad=1.408p pd=5.04u as=2.596p ps=5.58u w=4.4u l=0.6u
X20 pad.t21 sg13g2_GateDecode_0.pgate.t7 iovdd.t25 iovdd.t14 sg13_hv_pmos ad=4.9284p pd=14.8u as=2.1312p ps=7.3u w=6.66u l=0.6u
X21 iovdd.t20 sg13g2_GateDecode_0.pgate.t9 pad.t9 iovdd.t14 sg13_hv_pmos ad=2.1312p pd=7.3u as=3.9294p ps=7.84u w=6.66u l=0.6u
X22 iovss sg13g2_GateDecode_0.sg13g2_io_inv_x1_0.nq sg13g2_GateDecode_0.sg13g2_io_nor2_x1_0.nq iovss sg13_lv_nmos ad=1.4148p pd=8.58u as=0.7467p ps=4.31u w=3.93u l=0.13u
X23 a_12038_31490# sg13g2_LevelDown_0.sg13g2_SecondaryProtection_0.core vdd.t10 vdd.t0 sg13_hv_pmos ad=1.581p pd=9.98u as=1.581p ps=9.98u w=4.65u l=0.45u
X24 a_3724_30170# sg13g2_GateDecode_0.sg13g2_io_nor2_x1_0.nq iovss iovss sg13_hv_nmos ad=0.646p pd=4.48u as=0.361p ps=2.28u w=1.9u l=0.45u
X25 iovdd a_3724_30170# a_3656_30206# iovdd sg13_hv_pmos ad=57f pd=0.68u as=0.102p ps=1.28u w=0.3u l=0.45u
X26 sg13g2_GateDecode_0.ngate.t1 a_3724_30170# iovdd iovdd sg13_hv_pmos ad=1.326p pd=8.48u as=1.326p ps=8.48u w=3.9u l=0.45u
X27 iovdd.t19 sg13g2_GateDecode_0.pgate.t8 pad.t16 iovdd.t14 sg13_hv_pmos ad=2.1312p pd=7.3u as=3.9294p ps=7.84u w=6.66u l=0.6u
X28 sg13g2_GateDecode_0.sg13g2_io_nand2_x1_0.nq.t0 c2p.t0 vdd.t8 vdd.t2 sg13_lv_pmos ad=0.8379p pd=4.79u as=1.4994p ps=9.5u w=4.41u l=0.13u
X29 pad.t20 sg13g2_GateDecode_0.pgate.t10 iovdd.t23 iovdd.t14 sg13_hv_pmos ad=3.9294p pd=7.84u as=2.1312p ps=7.3u w=6.66u l=0.6u
X30 pad.t0 sg13g2_GateDecode_0.ngate.t7 iovss iovss sg13_hv_nmos ad=2.596p pd=5.58u as=1.408p ps=5.04u w=4.4u l=0.6u
X31 iovss sg13g2_GateDecode_0.ngate.t8 pad.t3 iovss sg13_hv_nmos ad=1.408p pd=5.04u as=2.596p ps=5.58u w=4.4u l=0.6u
X32 pad.t5 sg13g2_GateDecode_0.ngate.t9 iovss iovss sg13_hv_nmos ad=2.596p pd=5.58u as=1.408p ps=5.04u w=4.4u l=0.6u
X33 a_4426_30170# a_4358_30206# iovdd iovdd sg13_hv_pmos ad=0.102p pd=1.28u as=57f ps=0.68u w=0.3u l=0.45u
X34 iovdd.t18 sg13g2_GateDecode_0.pgate.t9 pad.t7 iovdd.t14 sg13_hv_pmos ad=2.1312p pd=7.3u as=3.9294p ps=7.84u w=6.66u l=0.6u
X35 a_3750_34876# c2p.t1 vdd.t7 vdd.t6 sg13_lv_pmos ad=0.8379p pd=4.79u as=1.4994p ps=9.5u w=4.41u l=0.13u
X36 pad.t19 sg13g2_GateDecode_0.pgate.t10 iovdd.t17 iovdd.t14 sg13_hv_pmos ad=3.9294p pd=7.84u as=2.1312p ps=7.3u w=6.66u l=0.6u
X37 pad.t8 sg13g2_GateDecode_0.pgate.t11 iovdd.t16 iovdd.t14 sg13_hv_pmos ad=3.9294p pd=7.84u as=2.1312p ps=7.3u w=6.66u l=0.6u
X38 pad.t4 sg13g2_GateDecode_0.ngate.t10 iovss iovss sg13_hv_nmos ad=2.596p pd=5.58u as=2.068p ps=9.74u w=4.4u l=0.6u
X39 pad.t1 sg13g2_GateDecode_0.ngate.t11 iovss iovss sg13_hv_nmos ad=2.596p pd=5.58u as=1.408p ps=5.04u w=4.4u l=0.6u
X40 sg13g2_GateDecode_0.ngate.t0 a_3724_30170# iovss iovss sg13_hv_nmos ad=0.646p pd=4.48u as=0.646p ps=4.48u w=1.9u l=0.45u
X41 pad.t18 sg13g2_GateDecode_0.pgate.t12 iovdd.t21 iovdd.t14 sg13_hv_pmos ad=3.9294p pd=7.84u as=2.1312p ps=7.3u w=6.66u l=0.6u
X42 iovdd.t28 sg13g2_GateDecode_0.pgate.t13 pad.t13 iovdd.t14 sg13_hv_pmos ad=2.1312p pd=7.3u as=3.9294p ps=7.84u w=6.66u l=0.6u
X43 vdd.t1 sg13g2_GateDecode_0.sg13g2_io_nand2_x1_0.nq.t2 a_4358_31526# vdd.t0 sg13_lv_pmos ad=1.615p pd=10.18u as=1.615p ps=10.18u w=4.75u l=0.13u
X44 iovss sg13g2_GateDecode_0.ngate.t12 dantenna l=0.78u w=0.78u
X45 iovss a_4358_31526# a_4358_30206# iovss sg13_hv_nmos ad=0.361p pd=2.28u as=0.646p ps=4.48u w=1.9u l=0.45u
X46 pad.t26 iovdd.t0 dpantenna l=1.26u w=27.78u
X47 sg13g2_GateDecode_0.sg13g2_io_inv_x1_0.nq c2p_en.t1 iovss iovss sg13_lv_nmos ad=1.3362p pd=8.54u as=1.3362p ps=8.54u w=3.93u l=0.13u
X48 iovss sg13g2_GateDecode_0.sg13g2_io_nand2_x1_0.nq.t2 a_4358_31526# iovss sg13_lv_nmos ad=0.935p pd=6.18u as=0.935p ps=6.18u w=2.75u l=0.13u
X49 pad.t17 sg13g2_GateDecode_0.pgate.t11 iovdd.t27 iovdd.t14 sg13_hv_pmos ad=3.9294p pd=7.84u as=2.1312p ps=7.3u w=6.66u l=0.6u
X50 pad.t16 sg13g2_GateDecode_0.pgate.t12 iovdd.t26 iovdd.t14 sg13_hv_pmos ad=3.9294p pd=7.84u as=2.1312p ps=7.3u w=6.66u l=0.6u
X51 iovss sg13g2_GateDecode_0.ngate.t13 pad.t0 iovss sg13_hv_nmos ad=1.408p pd=5.04u as=2.596p ps=5.58u w=4.4u l=0.6u
X52 iovdd.t25 sg13g2_GateDecode_0.pgate.t13 pad.t10 iovdd.t14 sg13_hv_pmos ad=2.1312p pd=7.3u as=3.9294p ps=7.84u w=6.66u l=0.6u
X53 pad.t15 sg13g2_GateDecode_0.pgate.t14 iovdd.t24 iovdd.t14 sg13_hv_pmos ad=3.9294p pd=7.84u as=2.1312p ps=7.3u w=6.66u l=0.6u
X54 vdd.t3 c2p_en.t0 sg13g2_GateDecode_0.sg13g2_io_nand2_x1_0.nq.t0 vdd.t2 sg13_lv_pmos ad=1.5876p pd=9.54u as=0.8379p ps=4.79u w=4.41u l=0.13u
X55 sg13g2_LevelDown_0.sg13g2_SecondaryProtection_0.core pad.t24 iovss rppd l=2u w=1u
X56 iovss sg13g2_GateDecode_0.ngate.t14 pad.t6 iovss sg13_hv_nmos ad=1.408p pd=5.04u as=2.596p ps=5.58u w=4.4u l=0.6u
X57 sg13g2_GateDecode_0.sg13g2_io_nor2_x1_0.nq sg13g2_GateDecode_0.sg13g2_io_inv_x1_0.nq a_3750_34876# vdd.t6 sg13_lv_pmos ad=1.5876p pd=9.54u as=0.8379p ps=4.79u w=4.41u l=0.13u
X58 a_3724_30170# a_3656_30206# iovdd iovdd sg13_hv_pmos ad=0.102p pd=1.28u as=57f ps=0.68u w=0.3u l=0.45u
X59 iovss sg13g2_GateDecode_0.ngate.t15 pad.t1 iovss sg13_hv_nmos ad=1.408p pd=5.04u as=2.596p ps=5.58u w=4.4u l=0.6u
X60 pad.t14 sg13g2_GateDecode_0.pgate.t14 iovdd.t19 iovdd.t14 sg13_hv_pmos ad=3.9294p pd=7.84u as=2.1312p ps=7.3u w=6.66u l=0.6u
X61 pad.t13 sg13g2_GateDecode_0.pgate.t15 iovdd.t20 iovdd.t14 sg13_hv_pmos ad=3.9294p pd=7.84u as=2.1312p ps=7.3u w=6.66u l=0.6u
X62 pad.t27 iovdd.t0 dpantenna l=1.26u w=27.78u
X63 iovdd.t23 sg13g2_GateDecode_0.pgate.t16 pad.t12 iovdd.t14 sg13_hv_pmos ad=2.1312p pd=7.3u as=3.9294p ps=7.84u w=6.66u l=0.6u
X64 sg13g2_GateDecode_0.pgate.t1 a_4426_30170# iovdd iovdd sg13_hv_pmos ad=1.326p pd=8.48u as=1.326p ps=8.48u w=3.9u l=0.45u
X65 pad.t3 sg13g2_GateDecode_0.ngate.t16 iovss iovss sg13_hv_nmos ad=2.596p pd=5.58u as=1.408p ps=5.04u w=4.4u l=0.6u
X66 vdd.t9 sg13g2_GateDecode_0.sg13g2_io_nor2_x1_0.nq a_3656_31526# vdd.t0 sg13_lv_pmos ad=1.615p pd=10.18u as=1.615p ps=10.18u w=4.75u l=0.13u
X67 iovss pad.t28 dantenna l=1.26u w=27.78u
X68 a_4230_33842# c2p.t0 iovss iovss sg13_lv_nmos ad=0.7467p pd=4.31u as=1.3362p ps=8.54u w=3.93u l=0.13u
X69 iovss a_3656_31526# a_3656_30206# iovss sg13_hv_nmos ad=0.361p pd=2.28u as=0.646p ps=4.48u w=1.9u l=0.45u
X70 sg13g2_LevelDown_0.sg13g2_SecondaryProtection_0.core iovdd dpantenna l=0.64u w=4.98u
X71 iovdd.t17 sg13g2_GateDecode_0.pgate.t16 pad.t11 iovdd.t14 sg13_hv_pmos ad=2.1312p pd=7.3u as=3.9294p ps=7.84u w=6.66u l=0.6u
X72 pad.t10 sg13g2_GateDecode_0.pgate.t15 iovdd.t18 iovdd.t14 sg13_hv_pmos ad=3.9294p pd=7.84u as=2.1312p ps=7.3u w=6.66u l=0.6u
X73 pad.t9 sg13g2_GateDecode_0.pgate.t17 iovdd.t22 iovdd.t14 sg13_hv_pmos ad=3.9294p pd=7.84u as=2.1312p ps=7.3u w=6.66u l=0.6u
X74 iovdd.t21 sg13g2_GateDecode_0.pgate.t3 pad.t8 iovdd.t14 sg13_hv_pmos ad=2.1312p pd=7.3u as=3.9294p ps=7.84u w=6.66u l=0.6u
X75 iovss sg13g2_GateDecode_0.sg13g2_io_nor2_x1_0.nq a_3656_31526# iovss sg13_lv_nmos ad=0.935p pd=6.18u as=0.935p ps=6.18u w=2.75u l=0.13u
X76 a_4426_30170# sg13g2_GateDecode_0.sg13g2_io_nand2_x1_0.nq.t3 iovss iovss sg13_hv_nmos ad=0.646p pd=4.48u as=0.361p ps=2.28u w=1.9u l=0.45u
X77 iovdd a_4426_30170# a_4358_30206# iovdd sg13_hv_pmos ad=57f pd=0.68u as=0.102p ps=1.28u w=0.3u l=0.45u
X78 pad.t23 sg13g2_GateDecode_0.ngate.t17 iovss iovss sg13_hv_nmos ad=2.596p pd=5.58u as=1.408p ps=5.04u w=4.4u l=0.6u
X79 sg13g2_GateDecode_0.sg13g2_io_nor2_x1_0.nq c2p.t1 iovss iovss sg13_lv_nmos ad=0.7467p pd=4.31u as=1.3362p ps=8.54u w=3.93u l=0.13u
X80 pad.t7 sg13g2_GateDecode_0.pgate.t17 iovdd.t15 iovdd.t14 sg13_hv_pmos ad=3.9294p pd=7.84u as=2.1312p ps=7.3u w=6.66u l=0.6u
X81 sg13g2_GateDecode_0.sg13g2_io_inv_x1_0.nq c2p_en.t1 vdd.t5 vdd.t4 sg13_lv_pmos ad=1.4994p pd=9.5u as=1.4994p ps=9.5u w=4.41u l=0.13u
X82 a_12038_31490# sg13g2_LevelDown_0.sg13g2_SecondaryProtection_0.core iovss iovss sg13_hv_nmos ad=0.901p pd=5.98u as=0.901p ps=5.98u w=2.65u l=0.45u
X83 sg13g2_GateDecode_0.pgate.t0 a_4426_30170# iovss iovss sg13_hv_nmos ad=0.646p pd=4.48u as=0.646p ps=4.48u w=1.9u l=0.45u
R0 p2c.n3 p2c 9.10188
R1 p2c.n3 p2c.n2 5.37153
R2 p2c p2c.n3 3.8549
R3 p2c.n0 p2c.t0 1.90938
R4 p2c.n1 p2c.t1 1.76324
R5 p2c.n1 p2c.n0 1.52928
R6 p2c.n2 p2c 1.27498
R7 p2c.n0 p2c 0.673576
R8 p2c.n2 p2c.n1 0.441789
R9 vdd.n39 vdd.n38 23.1683
R10 vdd.n30 vdd.t5 17.0005
R11 vdd.n32 vdd.t3 17.0005
R12 vdd.n34 vdd.t8 17.0005
R13 vdd.n27 vdd.t7 17.0005
R14 vdd.n30 vdd.t4 11.3504
R15 vdd.n37 vdd.t6 11.3229
R16 vdd.n19 vdd.n15 8.45671
R17 vdd.n25 vdd.n15 8.45671
R18 vdd.n22 vdd.n15 8.45671
R19 vdd.n33 vdd.n28 5.65625
R20 vdd.n31 vdd.n28 5.65625
R21 vdd.n36 vdd.n35 5.64342
R22 vdd.n26 vdd.n15 5.58952
R23 vdd.n14 vdd.n13 3.57795
R24 vdd.n41 vdd.n40 3.42019
R25 vdd.n29 vdd.n28 2.83433
R26 vdd.n24 vdd.t9 2.67724
R27 vdd.n21 vdd.t1 2.67724
R28 vdd.n42 vdd.n13 2.5353
R29 vdd.n23 vdd.n15 2.23747
R30 vdd.n20 vdd 2.0602
R31 vdd.n40 vdd.n39 1.94181
R32 vdd.n21 vdd.n20 1.88114
R33 vdd.n16 vdd.n13 1.78381
R34 vdd.n104 vdd.n103 1.50539
R35 vdd.n1 vdd.n0 1.5005
R36 vdd.n99 vdd.n98 1.5005
R37 vdd.n97 vdd.n96 1.5005
R38 vdd.n5 vdd.n4 1.5005
R39 vdd.n91 vdd.n90 1.5005
R40 vdd.n89 vdd.n88 1.5005
R41 vdd.n9 vdd.n8 1.5005
R42 vdd.n83 vdd.n82 1.5005
R43 vdd.n81 vdd.n80 1.5005
R44 vdd.n43 vdd.n12 1.5005
R45 vdd.n75 vdd.n74 1.5005
R46 vdd.n73 vdd.n72 1.5005
R47 vdd.n47 vdd.n46 1.5005
R48 vdd.n67 vdd.n66 1.5005
R49 vdd.n65 vdd.n64 1.5005
R50 vdd.n51 vdd.n50 1.5005
R51 vdd.n59 vdd.n58 1.5005
R52 vdd.n57 vdd.n56 1.5005
R53 vdd.n18 vdd.n16 1.39095
R54 vdd.n17 vdd.t10 1.31928
R55 vdd.n17 vdd.t11 1.21415
R56 vdd.n18 vdd 0.883119
R57 vdd.n23 vdd 0.719451
R58 vdd.n105 vdd 0.6957
R59 vdd.n24 vdd.n23 0.67542
R60 vdd.n103 vdd.n102 0.314786
R61 vdd.n101 vdd.n100 0.314786
R62 vdd.n3 vdd.n2 0.314786
R63 vdd.n95 vdd.n94 0.314786
R64 vdd.n93 vdd.n92 0.314786
R65 vdd.n7 vdd.n6 0.314786
R66 vdd.n87 vdd.n86 0.314786
R67 vdd.n85 vdd.n84 0.314786
R68 vdd.n11 vdd.n10 0.314786
R69 vdd.n79 vdd.n78 0.314786
R70 vdd.n77 vdd.n76 0.314786
R71 vdd.n45 vdd.n44 0.314786
R72 vdd.n71 vdd.n70 0.314786
R73 vdd.n69 vdd.n68 0.314786
R74 vdd.n49 vdd.n48 0.314786
R75 vdd.n63 vdd.n62 0.314786
R76 vdd.n61 vdd.n60 0.314786
R77 vdd.n53 vdd.n52 0.314786
R78 vdd vdd.n22 0.296488
R79 vdd vdd.n25 0.296488
R80 vdd.n39 vdd.n26 0.287915
R81 vdd.n26 vdd 0.264001
R82 vdd vdd.n19 0.249346
R83 vdd vdd.n17 0.233823
R84 vdd.n54 vdd 0.217715
R85 vdd.n55 vdd.n54 0.146103
R86 vdd.n19 vdd.n18 0.110536
R87 vdd.n22 vdd.n21 0.105298
R88 vdd.n25 vdd.n24 0.105298
R89 vdd.n81 vdd.n42 0.0983261
R90 vdd.n35 vdd 0.0934694
R91 vdd.n42 vdd.n41 0.0897467
R92 vdd.n35 vdd.n27 0.0756715
R93 vdd.n14 vdd.t0 0.0745867
R94 vdd.n31 vdd 0.0540006
R95 vdd.n33 vdd.n32 0.0475075
R96 vdd.n37 vdd 0.0474603
R97 vdd.n38 vdd.n37 0.0360492
R98 vdd.n56 vdd.n55 0.0354467
R99 vdd.n34 vdd.n33 0.0348561
R100 vdd.n32 vdd.n31 0.0333284
R101 vdd.n55 vdd.n52 0.0314255
R102 vdd vdd.n30 0.0199792
R103 vdd vdd.n34 0.0199792
R104 vdd.n27 vdd 0.0199792
R105 vdd.n40 vdd.n15 0.0167109
R106 vdd.n16 vdd.n15 0.0155555
R107 vdd.n18 vdd 0.01205
R108 vdd.n38 vdd 0.0115764
R109 vdd.n58 vdd.n57 0.00921287
R110 vdd.n58 vdd.n50 0.00921287
R111 vdd.n65 vdd.n50 0.00921287
R112 vdd.n66 vdd.n65 0.00921287
R113 vdd.n66 vdd.n46 0.00921287
R114 vdd.n73 vdd.n46 0.00921287
R115 vdd.n74 vdd.n73 0.00921287
R116 vdd.n74 vdd.n12 0.00921287
R117 vdd.n81 vdd.n12 0.00921287
R118 vdd.n82 vdd.n81 0.00921287
R119 vdd.n82 vdd.n8 0.00921287
R120 vdd.n89 vdd.n8 0.00921287
R121 vdd.n90 vdd.n89 0.00921287
R122 vdd.n90 vdd.n4 0.00921287
R123 vdd.n97 vdd.n4 0.00921287
R124 vdd.n98 vdd.n97 0.00921287
R125 vdd.n98 vdd.n0 0.00921287
R126 vdd.n104 vdd.n0 0.00921287
R127 vdd.n41 vdd 0.00903111
R128 vdd.n56 vdd.n53 0.00538889
R129 vdd.n59 vdd.n53 0.00538889
R130 vdd.n60 vdd.n59 0.00538889
R131 vdd.n60 vdd.n51 0.00538889
R132 vdd.n63 vdd.n51 0.00538889
R133 vdd.n64 vdd.n63 0.00538889
R134 vdd.n64 vdd.n49 0.00538889
R135 vdd.n67 vdd.n49 0.00538889
R136 vdd.n68 vdd.n67 0.00538889
R137 vdd.n68 vdd.n47 0.00538889
R138 vdd.n71 vdd.n47 0.00538889
R139 vdd.n72 vdd.n71 0.00538889
R140 vdd.n72 vdd.n45 0.00538889
R141 vdd.n75 vdd.n45 0.00538889
R142 vdd.n76 vdd.n75 0.00538889
R143 vdd.n76 vdd.n43 0.00538889
R144 vdd.n79 vdd.n43 0.00538889
R145 vdd.n80 vdd.n79 0.00538889
R146 vdd.n80 vdd.n11 0.00538889
R147 vdd.n83 vdd.n11 0.00538889
R148 vdd.n84 vdd.n83 0.00538889
R149 vdd.n84 vdd.n9 0.00538889
R150 vdd.n87 vdd.n9 0.00538889
R151 vdd.n88 vdd.n87 0.00538889
R152 vdd.n88 vdd.n7 0.00538889
R153 vdd.n91 vdd.n7 0.00538889
R154 vdd.n92 vdd.n91 0.00538889
R155 vdd.n92 vdd.n5 0.00538889
R156 vdd.n95 vdd.n5 0.00538889
R157 vdd.n96 vdd.n95 0.00538889
R158 vdd.n96 vdd.n3 0.00538889
R159 vdd.n99 vdd.n3 0.00538889
R160 vdd.n100 vdd.n99 0.00538889
R161 vdd.n100 vdd.n1 0.00538889
R162 vdd.n103 vdd.n1 0.00538889
R163 vdd.n57 vdd.n54 0.00485644
R164 vdd.n105 vdd.n104 0.00485644
R165 vdd vdd.n105 0.00485644
R166 vdd.n102 vdd 0.0035
R167 vdd.n61 vdd.n52 0.0025
R168 vdd.n62 vdd.n61 0.0025
R169 vdd.n62 vdd.n48 0.0025
R170 vdd.n69 vdd.n48 0.0025
R171 vdd.n70 vdd.n69 0.0025
R172 vdd.n70 vdd.n44 0.0025
R173 vdd.n77 vdd.n44 0.0025
R174 vdd.n78 vdd.n77 0.0025
R175 vdd.n78 vdd.n10 0.0025
R176 vdd.n85 vdd.n10 0.0025
R177 vdd.n86 vdd.n85 0.0025
R178 vdd.n86 vdd.n6 0.0025
R179 vdd.n93 vdd.n6 0.0025
R180 vdd.n94 vdd.n93 0.0025
R181 vdd.n94 vdd.n2 0.0025
R182 vdd.n101 vdd.n2 0.0025
R183 vdd.n102 vdd.n101 0.0025
R184 vdd.n20 vdd.n15 0.00245557
R185 vdd.n15 vdd.n14 0.00100649
R186 vdd.n29 vdd.t2 0.001
R187 vdd.t6 vdd.n36 0.001
R188 vdd.t4 vdd.n29 0.001
R189 vdd.n36 vdd.t2 0.001
R190 sg13g2_GateDecode_0.sg13g2_LevelUp_1.o sg13g2_GateDecode_0.pgate.n18 32.6396
R191 sg13g2_GateDecode_0.pgate.n17 sg13g2_GateDecode_0.pgate.n15 9.58949
R192 sg13g2_GateDecode_0.pgate.n16 sg13g2_GateDecode_0.pgate.n1 9.00605
R193 sg13g2_GateDecode_0.pgate.n18 sg13g2_GateDecode_0.pgate.n17 9.0005
R194 sg13g2_GateDecode_0.pgate.n2 sg13g2_GateDecode_0.pgate.t7 7.94005
R195 sg13g2_GateDecode_0.pgate.n15 sg13g2_GateDecode_0.pgate.t5 7.08755
R196 sg13g2_GateDecode_0.pgate.n2 sg13g2_GateDecode_0.pgate.t13 7.08755
R197 sg13g2_GateDecode_0.pgate.n3 sg13g2_GateDecode_0.pgate.t15 7.08755
R198 sg13g2_GateDecode_0.pgate.n4 sg13g2_GateDecode_0.pgate.t9 7.08755
R199 sg13g2_GateDecode_0.pgate.n5 sg13g2_GateDecode_0.pgate.t17 7.08755
R200 sg13g2_GateDecode_0.pgate.n6 sg13g2_GateDecode_0.pgate.t6 7.08755
R201 sg13g2_GateDecode_0.pgate.n7 sg13g2_GateDecode_0.pgate.t14 7.08755
R202 sg13g2_GateDecode_0.pgate.n8 sg13g2_GateDecode_0.pgate.t8 7.08755
R203 sg13g2_GateDecode_0.pgate.n9 sg13g2_GateDecode_0.pgate.t12 7.08755
R204 sg13g2_GateDecode_0.pgate.n10 sg13g2_GateDecode_0.pgate.t3 7.08755
R205 sg13g2_GateDecode_0.pgate.n11 sg13g2_GateDecode_0.pgate.t11 7.08755
R206 sg13g2_GateDecode_0.pgate.n12 sg13g2_GateDecode_0.pgate.t4 7.08755
R207 sg13g2_GateDecode_0.pgate.n13 sg13g2_GateDecode_0.pgate.t10 7.08755
R208 sg13g2_GateDecode_0.pgate.n14 sg13g2_GateDecode_0.pgate.t16 7.08755
R209 sg13g2_GateDecode_0.pgate.n0 sg13g2_GateDecode_0.pgate.t0 4.59834
R210 sg13g2_GateDecode_0.pgate.n16 sg13g2_GateDecode_0.pgate.t2 4.2615
R211 sg13g2_GateDecode_0.pgate.n0 sg13g2_GateDecode_0.pgate.t1 2.00385
R212 sg13g2_GateDecode_0.sg13g2_LevelUp_1.o sg13g2_GateDecode_0.pgate.n0 1.98894
R213 sg13g2_GateDecode_0.pgate.n3 sg13g2_GateDecode_0.pgate.n2 1.22425
R214 sg13g2_GateDecode_0.pgate.n5 sg13g2_GateDecode_0.pgate.n4 1.22425
R215 sg13g2_GateDecode_0.pgate.n7 sg13g2_GateDecode_0.pgate.n6 1.22425
R216 sg13g2_GateDecode_0.pgate.n9 sg13g2_GateDecode_0.pgate.n8 1.22425
R217 sg13g2_GateDecode_0.pgate.n11 sg13g2_GateDecode_0.pgate.n10 1.22425
R218 sg13g2_GateDecode_0.pgate.n13 sg13g2_GateDecode_0.pgate.n12 1.22425
R219 sg13g2_GateDecode_0.pgate.n15 sg13g2_GateDecode_0.pgate.n14 1.22425
R220 sg13g2_GateDecode_0.pgate.n4 sg13g2_GateDecode_0.pgate.n3 0.853
R221 sg13g2_GateDecode_0.pgate.n6 sg13g2_GateDecode_0.pgate.n5 0.853
R222 sg13g2_GateDecode_0.pgate.n8 sg13g2_GateDecode_0.pgate.n7 0.853
R223 sg13g2_GateDecode_0.pgate.n10 sg13g2_GateDecode_0.pgate.n9 0.853
R224 sg13g2_GateDecode_0.pgate.n12 sg13g2_GateDecode_0.pgate.n11 0.853
R225 sg13g2_GateDecode_0.pgate.n14 sg13g2_GateDecode_0.pgate.n13 0.853
R226 sg13g2_GateDecode_0.pgate.n18 sg13g2_GateDecode_0.pgate.n1 0.2117
R227 sg13g2_GateDecode_0.pgate.n17 sg13g2_GateDecode_0.pgate.n16 0.201404
R228 sg13g2_GateDecode_0.pgate.n1 sg13g2_Clamp_P15N15D_0.gate 0.0841
R229 iovdd.n305 iovdd.n304 10.8089
R230 iovdd.n299 iovdd.n298 10.8089
R231 iovdd.n268 iovdd.n267 10.8089
R232 iovdd.n244 iovdd.n243 10.8089
R233 iovdd.n241 iovdd.n240 10.8089
R234 iovdd.n271 iovdd.n270 10.8089
R235 iovdd.n302 iovdd.n120 10.8089
R236 iovdd.n264 iovdd.n263 10.8089
R237 iovdd.n277 iovdd.n276 9.0005
R238 iovdd.n445 iovdd.n444 9.0005
R239 iovdd.n442 iovdd.n441 9.0005
R240 iovdd.n427 iovdd.n426 9.0005
R241 iovdd.n236 iovdd.n30 9.0005
R242 iovdd.n468 iovdd.n467 9.0005
R243 iovdd.n424 iovdd.n423 9.0005
R244 iovdd.n465 iovdd.n464 9.0005
R245 iovdd.n500 iovdd.n31 5.66717
R246 iovdd.n501 iovdd.n500 5.66717
R247 iovdd.n457 iovdd.n456 5.66717
R248 iovdd.n456 iovdd.n455 5.66717
R249 iovdd.n437 iovdd.n111 5.66717
R250 iovdd.n438 iovdd.n437 5.66717
R251 iovdd.n419 iovdd.n407 5.66717
R252 iovdd.n420 iovdd.n419 5.66717
R253 iovdd.n415 iovdd.n414 5.66717
R254 iovdd.n414 iovdd.n413 5.66717
R255 iovdd.n430 iovdd.n428 4.9805
R256 iovdd.n104 iovdd.n102 4.9805
R257 iovdd.n448 iovdd.n446 4.9805
R258 iovdd.n471 iovdd.n469 4.9805
R259 iovdd.n506 iovdd.n505 4.9805
R260 iovdd.n274 iovdd.n272 4.9805
R261 iovdd.n80 iovdd.n78 4.9805
R262 iovdd.n509 iovdd.n21 4.28068
R263 iovdd.n511 iovdd.n18 4.2505
R264 iovdd.n398 iovdd.n396 3.0005
R265 iovdd.n400 iovdd.n395 3.0005
R266 iovdd.n430 iovdd.n429 3.0005
R267 iovdd.n104 iovdd.n103 3.0005
R268 iovdd.n448 iovdd.n447 3.0005
R269 iovdd.n274 iovdd.n273 3.0005
R270 iovdd.n471 iovdd.n470 3.0005
R271 iovdd.n505 iovdd.n504 3.0005
R272 iovdd.n422 iovdd.n421 3.0005
R273 iovdd.n432 iovdd.n431 3.0005
R274 iovdd.n440 iovdd.n439 3.0005
R275 iovdd.n450 iovdd.n449 3.0005
R276 iovdd.n275 iovdd.n91 3.0005
R277 iovdd.n473 iovdd.n472 3.0005
R278 iovdd.n503 iovdd.n502 3.0005
R279 iovdd.n463 iovdd.n462 3.0005
R280 iovdd.n80 iovdd.n79 3.0005
R281 iovdd.t0 iovdd.n498 2.83433
R282 iovdd.t0 iovdd.n483 2.83433
R283 iovdd.t0 iovdd.n482 2.83433
R284 iovdd.t0 iovdd.n481 2.83433
R285 iovdd.t0 iovdd.n480 2.83433
R286 iovdd.t0 iovdd.n479 2.83433
R287 iovdd.t0 iovdd.n33 2.83433
R288 iovdd.n499 iovdd.t0 2.83433
R289 iovdd.t0 iovdd.n478 2.83433
R290 iovdd.t0 iovdd.n68 2.83433
R291 iovdd.t0 iovdd.n67 2.83433
R292 iovdd.t0 iovdd.n66 2.83433
R293 iovdd.t0 iovdd.n65 2.83433
R294 iovdd.t0 iovdd.n64 2.83433
R295 iovdd.t0 iovdd.n63 2.83433
R296 iovdd.t0 iovdd.n62 2.83433
R297 iovdd.t0 iovdd.n61 2.83433
R298 iovdd.t0 iovdd.n60 2.83433
R299 iovdd.t0 iovdd.n59 2.83433
R300 iovdd.t0 iovdd.n58 2.83433
R301 iovdd.t0 iovdd.n57 2.83433
R302 iovdd.t0 iovdd.n56 2.83433
R303 iovdd.t0 iovdd.n55 2.83433
R304 iovdd.t0 iovdd.n54 2.83433
R305 iovdd.t0 iovdd.n53 2.83433
R306 iovdd.t0 iovdd.n52 2.83433
R307 iovdd.t0 iovdd.n51 2.83433
R308 iovdd.t0 iovdd.n50 2.83433
R309 iovdd.t0 iovdd.n49 2.83433
R310 iovdd.t0 iovdd.n48 2.83433
R311 iovdd.t0 iovdd.n47 2.83433
R312 iovdd.t0 iovdd.n46 2.83433
R313 iovdd.t0 iovdd.n45 2.83433
R314 iovdd.t0 iovdd.n44 2.83433
R315 iovdd.t0 iovdd.n43 2.83433
R316 iovdd.t0 iovdd.n42 2.83433
R317 iovdd.t0 iovdd.n41 2.83433
R318 iovdd.t0 iovdd.n40 2.83433
R319 iovdd.t0 iovdd.n39 2.83433
R320 iovdd.t0 iovdd.n38 2.83433
R321 iovdd.t0 iovdd.n37 2.83433
R322 iovdd.t0 iovdd.n36 2.83433
R323 iovdd.n497 iovdd.n496 2.82693
R324 iovdd.n495 iovdd.n484 2.82693
R325 iovdd.n494 iovdd.n485 2.82693
R326 iovdd.n493 iovdd.n486 2.82693
R327 iovdd.n492 iovdd.n487 2.82693
R328 iovdd.n491 iovdd.n488 2.82693
R329 iovdd.n490 iovdd.n489 2.82693
R330 iovdd.n34 iovdd.n32 2.82693
R331 iovdd.n477 iovdd.n476 2.82693
R332 iovdd.n475 iovdd.n69 2.82693
R333 iovdd.n474 iovdd.n70 2.82693
R334 iovdd.n72 iovdd.n71 2.82693
R335 iovdd.n82 iovdd.n81 2.82693
R336 iovdd.n84 iovdd.n83 2.82693
R337 iovdd.n86 iovdd.n85 2.82693
R338 iovdd.n461 iovdd.n87 2.82693
R339 iovdd.n460 iovdd.n88 2.82693
R340 iovdd.n459 iovdd.n89 2.82693
R341 iovdd.n458 iovdd.n90 2.82693
R342 iovdd.n454 iovdd.n92 2.82693
R343 iovdd.n453 iovdd.n93 2.82693
R344 iovdd.n452 iovdd.n94 2.82693
R345 iovdd.n451 iovdd.n95 2.82693
R346 iovdd.n97 iovdd.n96 2.82693
R347 iovdd.n106 iovdd.n105 2.82693
R348 iovdd.n108 iovdd.n107 2.82693
R349 iovdd.n110 iovdd.n109 2.82693
R350 iovdd.n436 iovdd.n112 2.82693
R351 iovdd.n435 iovdd.n113 2.82693
R352 iovdd.n434 iovdd.n114 2.82693
R353 iovdd.n433 iovdd.n115 2.82693
R354 iovdd.n117 iovdd.n116 2.82693
R355 iovdd.n402 iovdd.n401 2.82693
R356 iovdd.n404 iovdd.n403 2.82693
R357 iovdd.n406 iovdd.n405 2.82693
R358 iovdd.n418 iovdd.n408 2.82693
R359 iovdd.n417 iovdd.n409 2.82693
R360 iovdd.n416 iovdd.n410 2.82693
R361 iovdd.n511 iovdd.n2 2.41731
R362 iovdd.n512 iovdd.n511 2.1192
R363 iovdd.n511 iovdd.n15 2.11861
R364 iovdd.n100 iovdd.n75 1.98828
R365 iovdd.n300 iovdd.n75 1.98792
R366 iovdd.n431 iovdd.n430 1.9805
R367 iovdd.n440 iovdd.n104 1.9805
R368 iovdd.n449 iovdd.n448 1.9805
R369 iovdd.n472 iovdd.n471 1.9805
R370 iovdd.n505 iovdd.n503 1.9805
R371 iovdd.n275 iovdd.n274 1.9805
R372 iovdd.n463 iovdd.n80 1.9805
R373 iovdd.t0 iovdd.n35 1.89
R374 iovdd.n431 iovdd.n427 1.8749
R375 iovdd.n441 iovdd.n440 1.8749
R376 iovdd.n449 iovdd.n445 1.8749
R377 iovdd.n472 iovdd.n468 1.8749
R378 iovdd.n503 iovdd.n30 1.8749
R379 iovdd.n277 iovdd.n275 1.8749
R380 iovdd.n464 iovdd.n463 1.8749
R381 iovdd.n427 iovdd.n118 1.8089
R382 iovdd.n441 iovdd.n101 1.8089
R383 iovdd.n445 iovdd.n98 1.8089
R384 iovdd.n468 iovdd.n73 1.8089
R385 iovdd.n238 iovdd.n30 1.8089
R386 iovdd.n278 iovdd.n277 1.8089
R387 iovdd.n423 iovdd.n393 1.8089
R388 iovdd.n464 iovdd.n77 1.8089
R389 iovdd.n263 iovdd.t15 1.76518
R390 iovdd.n77 iovdd.t22 1.76518
R391 iovdd.n271 iovdd.t19 1.76518
R392 iovdd.n278 iovdd.t24 1.76518
R393 iovdd.n305 iovdd.t17 1.76518
R394 iovdd.n118 iovdd.t23 1.76518
R395 iovdd.n298 iovdd.t27 1.76518
R396 iovdd.n101 iovdd.t16 1.76518
R397 iovdd.n267 iovdd.t26 1.76518
R398 iovdd.n98 iovdd.t21 1.76518
R399 iovdd.n244 iovdd.t18 1.76518
R400 iovdd.n73 iovdd.t20 1.76518
R401 iovdd.n240 iovdd.t25 1.76518
R402 iovdd.n238 iovdd.t28 1.76518
R403 iovdd.n120 iovdd.t40 1.76484
R404 iovdd.n393 iovdd.t42 1.76484
R405 iovdd.n425 iovdd.n75 1.73634
R406 iovdd.n99 iovdd.n75 1.73634
R407 iovdd.n466 iovdd.n75 1.73634
R408 iovdd.n443 iovdd.n75 1.73611
R409 iovdd.n76 iovdd.n75 1.73611
R410 iovdd.n75 iovdd.n74 1.73611
R411 iovdd.n133 iovdd.n75 1.73611
R412 iovdd.n265 iovdd.n75 1.73611
R413 iovdd.n242 iovdd.n75 1.73611
R414 iovdd.n303 iovdd.n75 1.73595
R415 iovdd.n269 iovdd.n75 1.73595
R416 iovdd.n144 iovdd.n75 1.73595
R417 iovdd.t0 iovdd.n1 1.70106
R418 iovdd.n412 iovdd.n411 1.68243
R419 iovdd.n423 iovdd.n422 1.60815
R420 iovdd.n306 iovdd.n305 1.5625
R421 iovdd.n306 iovdd.n118 1.5625
R422 iovdd.n298 iovdd.n297 1.5625
R423 iovdd.n297 iovdd.n101 1.5625
R424 iovdd.n267 iovdd.n266 1.5625
R425 iovdd.n266 iovdd.n98 1.5625
R426 iovdd.n245 iovdd.n244 1.5625
R427 iovdd.n245 iovdd.n73 1.5625
R428 iovdd.n240 iovdd.n239 1.5625
R429 iovdd.n239 iovdd.n238 1.5625
R430 iovdd.n279 iovdd.n271 1.5625
R431 iovdd.n279 iovdd.n278 1.5625
R432 iovdd.n392 iovdd.n120 1.5625
R433 iovdd.n393 iovdd.n392 1.5625
R434 iovdd.n263 iovdd.n262 1.5625
R435 iovdd.n262 iovdd.n77 1.5625
R436 iovdd iovdd.n119 1.43219
R437 iovdd.n241 iovdd.n237 1.42534
R438 iovdd.n237 iovdd.n236 1.42433
R439 iovdd.n301 iovdd 1.39634
R440 iovdd.n424 iovdd.n119 1.33976
R441 iovdd.n302 iovdd.n301 1.33311
R442 iovdd.n511 iovdd.n14 1.28534
R443 iovdd.n511 iovdd.n20 1.28534
R444 iovdd.n355 iovdd.n351 0.826084
R445 iovdd.n188 iovdd.n181 0.826084
R446 iovdd.n358 iovdd.n350 0.818682
R447 iovdd.n349 iovdd.n342 0.818682
R448 iovdd.n365 iovdd.n341 0.818682
R449 iovdd.n366 iovdd.n340 0.818682
R450 iovdd.n339 iovdd.n332 0.818682
R451 iovdd.n373 iovdd.n331 0.818682
R452 iovdd.n374 iovdd.n330 0.818682
R453 iovdd.n329 iovdd.n322 0.818682
R454 iovdd.n381 iovdd.n321 0.818682
R455 iovdd.n382 iovdd.n320 0.818682
R456 iovdd.n124 iovdd.n122 0.818682
R457 iovdd.n390 iovdd.n389 0.818682
R458 iovdd.n123 iovdd.n121 0.818682
R459 iovdd.n309 iovdd.n308 0.818682
R460 iovdd.n132 iovdd.n131 0.818682
R461 iovdd.n295 iovdd.n294 0.818682
R462 iovdd.n281 iovdd.n135 0.818682
R463 iovdd.n283 iovdd.n282 0.818682
R464 iovdd.n143 iovdd.n142 0.818682
R465 iovdd.n260 iovdd.n259 0.818682
R466 iovdd.n146 iovdd.n145 0.818682
R467 iovdd.n248 iovdd.n247 0.818682
R468 iovdd.n234 iovdd.n153 0.818682
R469 iovdd.n233 iovdd.n232 0.818682
R470 iovdd.n155 iovdd.n154 0.818682
R471 iovdd.n221 iovdd.n220 0.818682
R472 iovdd.n219 iovdd.n162 0.818682
R473 iovdd.n218 iovdd.n217 0.818682
R474 iovdd.n164 iovdd.n163 0.818682
R475 iovdd.n206 iovdd.n205 0.818682
R476 iovdd.n204 iovdd.n171 0.818682
R477 iovdd.n203 iovdd.n202 0.818682
R478 iovdd.n173 iovdd.n172 0.818682
R479 iovdd.n191 iovdd.n190 0.818682
R480 iovdd.n189 iovdd.n180 0.818682
R481 iovdd.n187 iovdd.n186 0.818682
R482 iovdd.n182 iovdd.n180 0.818682
R483 iovdd.n192 iovdd.n191 0.818682
R484 iovdd.n193 iovdd.n173 0.818682
R485 iovdd.n202 iovdd.n201 0.818682
R486 iovdd.n175 iovdd.n171 0.818682
R487 iovdd.n207 iovdd.n206 0.818682
R488 iovdd.n208 iovdd.n164 0.818682
R489 iovdd.n217 iovdd.n216 0.818682
R490 iovdd.n166 iovdd.n162 0.818682
R491 iovdd.n222 iovdd.n221 0.818682
R492 iovdd.n223 iovdd.n155 0.818682
R493 iovdd.n232 iovdd.n231 0.818682
R494 iovdd.n157 iovdd.n153 0.818682
R495 iovdd.n249 iovdd.n248 0.818682
R496 iovdd.n250 iovdd.n146 0.818682
R497 iovdd.n259 iovdd.n258 0.818682
R498 iovdd.n148 iovdd.n142 0.818682
R499 iovdd.n284 iovdd.n283 0.818682
R500 iovdd.n285 iovdd.n135 0.818682
R501 iovdd.n294 iovdd.n293 0.818682
R502 iovdd.n137 iovdd.n131 0.818682
R503 iovdd.n310 iovdd.n309 0.818682
R504 iovdd.n311 iovdd.n123 0.818682
R505 iovdd.n389 iovdd.n388 0.818682
R506 iovdd.n126 iovdd.n124 0.818682
R507 iovdd.n383 iovdd.n382 0.818682
R508 iovdd.n381 iovdd.n380 0.818682
R509 iovdd.n323 iovdd.n322 0.818682
R510 iovdd.n375 iovdd.n374 0.818682
R511 iovdd.n373 iovdd.n372 0.818682
R512 iovdd.n333 iovdd.n332 0.818682
R513 iovdd.n367 iovdd.n366 0.818682
R514 iovdd.n365 iovdd.n364 0.818682
R515 iovdd.n343 iovdd.n342 0.818682
R516 iovdd.n359 iovdd.n358 0.818682
R517 iovdd.n357 iovdd.n356 0.818682
R518 iovdd.n511 iovdd.n22 0.671789
R519 iovdd.n511 iovdd.n6 0.671602
R520 iovdd.n511 iovdd.n28 0.671602
R521 iovdd.n511 iovdd.n12 0.671423
R522 iovdd.n511 iovdd.n24 0.588672
R523 iovdd.n511 iovdd.n26 0.588672
R524 iovdd.n511 iovdd.n29 0.588672
R525 iovdd.n511 iovdd.n11 0.588437
R526 iovdd.n511 iovdd.n9 0.588437
R527 iovdd.n511 iovdd.n7 0.588437
R528 iovdd.n511 iovdd.n23 0.588437
R529 iovdd.n511 iovdd.n25 0.588437
R530 iovdd.n511 iovdd.n27 0.588437
R531 iovdd.n511 iovdd.n10 0.588281
R532 iovdd.n511 iovdd.n8 0.588281
R533 iovdd.n511 iovdd.n5 0.588281
R534 iovdd.n511 iovdd.n3 0.588266
R535 iovdd.n444 iovdd.n443 0.515695
R536 iovdd.n268 iovdd.n133 0.515695
R537 iovdd.n425 iovdd.n424 0.513735
R538 iovdd.n303 iovdd.n302 0.513312
R539 iovdd.n511 iovdd.n510 0.503491
R540 iovdd.n270 iovdd.n269 0.502871
R541 iovdd.n276 iovdd.n99 0.502476
R542 iovdd.n511 iovdd.n17 0.502128
R543 iovdd.n465 iovdd.n76 0.489812
R544 iovdd.n265 iovdd.n264 0.489812
R545 iovdd.n467 iovdd.n74 0.481088
R546 iovdd.n243 iovdd.n242 0.481088
R547 iovdd.n300 iovdd.n299 0.479418
R548 iovdd.n442 iovdd.n100 0.479034
R549 iovdd.n426 iovdd.n100 0.477001
R550 iovdd.n243 iovdd.n144 0.476989
R551 iovdd.n304 iovdd.n300 0.476595
R552 iovdd.n467 iovdd.n466 0.476594
R553 iovdd.n466 iovdd.n465 0.468441
R554 iovdd.n264 iovdd.n144 0.468018
R555 iovdd.n236 iovdd.n74 0.46393
R556 iovdd.n242 iovdd.n241 0.46393
R557 iovdd.n276 iovdd.n76 0.455206
R558 iovdd.n270 iovdd.n265 0.455206
R559 iovdd.n444 iovdd.n99 0.442559
R560 iovdd.n269 iovdd.n268 0.442135
R561 iovdd.n304 iovdd.n303 0.431695