* NGSPICE file created from sg13g2_IOPadIOVdd_flat.ext - technology: ihp-sg13g2

.subckt sg13g2_IOPadIOVdd_flat iovdd vdd vss iovss
X0 iovss sg13g2_Clamp_N43N43D4R_0.gate.t31 iovdd.t66 iovss sg13_hv_nmos ad=1.408p pd=5.04u as=2.596p ps=5.58u w=4.4u l=0.6u
X1 iovdd.t80 sg13g2_Clamp_N43N43D4R_0.gate.t32 iovss iovss sg13_hv_nmos ad=2.596p pd=5.58u as=1.408p ps=5.04u w=4.4u l=0.6u
X2 iovdd.t68 sg13g2_Clamp_N43N43D4R_0.gate.t33 iovss iovss sg13_hv_nmos ad=2.596p pd=5.58u as=1.408p ps=5.04u w=4.4u l=0.6u
X3 iovdd.t131 sg13g2_RCClampResistor_0.pin2.t1 sg13g2_Clamp_N43N43D4R_0.gate.t9 iovdd.t89 sg13_hv_pmos ad=1.33p pd=7.38u as=1.33p ps=7.38u w=7u l=0.5u
X4 sg13g2_Clamp_N43N43D4R_0.gate.t30 sg13g2_RCClampResistor_0.pin2.t2 iovss iovss sg13_hv_nmos ad=1.71p pd=9.38u as=1.71p ps=9.38u w=9u l=0.5u
X5 iovss sg13g2_Clamp_N43N43D4R_0.gate.t34 iovdd.t38 iovss sg13_hv_nmos ad=1.408p pd=5.04u as=2.596p ps=5.58u w=4.4u l=0.6u
X6 iovss sg13g2_Clamp_N43N43D4R_0.gate.t35 iovdd.t74 iovss sg13_hv_nmos ad=1.408p pd=5.04u as=2.596p ps=5.58u w=4.4u l=0.6u
X7 iovss sg13g2_Clamp_N43N43D4R_0.gate.t36 iovdd.t37 iovss sg13_hv_nmos ad=1.408p pd=5.04u as=2.596p ps=5.58u w=4.4u l=0.6u
X8 iovdd.t115 sg13g2_RCClampResistor_0.pin2.t1 sg13g2_Clamp_N43N43D4R_0.gate.t21 iovdd.t89 sg13_hv_pmos ad=1.33p pd=7.38u as=1.33p ps=7.38u w=7u l=0.5u
X9 sg13g2_Clamp_N43N43D4R_0.gate.t29 sg13g2_RCClampResistor_0.pin2.t2 iovss iovss sg13_hv_nmos ad=1.71p pd=9.38u as=1.71p ps=9.38u w=9u l=0.5u
X10 iovss sg13g2_Clamp_N43N43D4R_0.gate.t37 iovdd.t35 iovss sg13_hv_nmos ad=1.408p pd=5.04u as=2.596p ps=5.58u w=4.4u l=0.6u
X11 iovss sg13g2_Clamp_N43N43D4R_0.gate.t38 iovdd.t33 iovss sg13_hv_nmos ad=1.408p pd=5.04u as=2.596p ps=5.58u w=4.4u l=0.6u
X12 iovss sg13g2_Clamp_N43N43D4R_0.gate.t39 iovdd.t87 iovss sg13_hv_nmos ad=1.408p pd=5.04u as=2.596p ps=5.58u w=4.4u l=0.6u
X13 iovdd.t87 sg13g2_Clamp_N43N43D4R_0.gate.t40 iovss iovss sg13_hv_nmos ad=2.596p pd=5.58u as=1.408p ps=5.04u w=4.4u l=0.6u
X14 iovss sg13g2_Clamp_N43N43D4R_0.gate.t41 iovdd.t86 iovss sg13_hv_nmos ad=1.408p pd=5.04u as=2.596p ps=5.58u w=4.4u l=0.6u
X15 iovdd.t62 sg13g2_Clamp_N43N43D4R_0.gate.t42 iovss iovss sg13_hv_nmos ad=2.596p pd=5.58u as=1.408p ps=5.04u w=4.4u l=0.6u
X16 iovss sg13g2_Clamp_N43N43D4R_0.gate.t43 iovdd.t29 iovss sg13_hv_nmos ad=1.408p pd=5.04u as=2.596p ps=5.58u w=4.4u l=0.6u
X17 iovdd.t109 sg13g2_RCClampResistor_0.pin2.t1 sg13g2_Clamp_N43N43D4R_0.gate.t19 iovdd.t89 sg13_hv_pmos ad=1.33p pd=7.38u as=1.33p ps=7.38u w=7u l=0.5u
X18 iovdd.t117 sg13g2_RCClampResistor_0.pin2.t1 sg13g2_Clamp_N43N43D4R_0.gate.t18 iovdd.t89 sg13_hv_pmos ad=1.33p pd=7.38u as=1.33p ps=7.38u w=7u l=0.5u
X19 iovss sg13g2_Clamp_N43N43D4R_0.gate.t44 iovdd.t69 iovss sg13_hv_nmos ad=1.408p pd=5.04u as=2.596p ps=5.58u w=4.4u l=0.6u
X20 iovdd.t60 sg13g2_Clamp_N43N43D4R_0.gate.t45 iovss iovss sg13_hv_nmos ad=2.596p pd=5.58u as=1.408p ps=5.04u w=4.4u l=0.6u
X21 iovss sg13g2_Clamp_N43N43D4R_0.gate.t46 iovdd.t26 iovss sg13_hv_nmos ad=1.408p pd=5.04u as=2.596p ps=5.58u w=4.4u l=0.6u
X22 iovss sg13g2_Clamp_N43N43D4R_0.gate.t47 iovdd.t84 iovss sg13_hv_nmos ad=1.408p pd=5.04u as=2.596p ps=5.58u w=4.4u l=0.6u
X23 iovss sg13g2_Clamp_N43N43D4R_0.gate.t48 iovdd.t23 iovss sg13_hv_nmos ad=1.408p pd=5.04u as=2.596p ps=5.58u w=4.4u l=0.6u
X24 iovdd.t58 sg13g2_Clamp_N43N43D4R_0.gate.t49 iovss iovss sg13_hv_nmos ad=2.596p pd=5.58u as=1.408p ps=5.04u w=4.4u l=0.6u
X25 sg13g2_Clamp_N43N43D4R_0.gate.t3 sg13g2_RCClampResistor_0.pin2.t1 iovdd.t108 iovdd.t89 sg13_hv_pmos ad=1.33p pd=7.38u as=1.33p ps=7.38u w=7u l=0.5u
X26 a_11365_11542# a_11695_7456# iovss rppd l=20u w=1u
X27 iovdd.t113 sg13g2_RCClampResistor_0.pin2.t1 sg13g2_Clamp_N43N43D4R_0.gate.t20 iovdd.t89 sg13_hv_pmos ad=1.33p pd=7.38u as=1.33p ps=7.38u w=7u l=0.5u
X28 iovss sg13g2_Clamp_N43N43D4R_0.gate.t50 iovdd.t19 iovss sg13_hv_nmos ad=1.408p pd=5.04u as=2.596p ps=5.58u w=4.4u l=0.6u
X29 sg13g2_Clamp_N43N43D4R_0.gate.t8 sg13g2_RCClampResistor_0.pin2.t1 iovdd.t91 iovdd.t89 sg13_hv_pmos ad=1.33p pd=7.38u as=1.33p ps=7.38u w=7u l=0.5u
X30 a_8725_11542# a_9055_7456# iovss rppd l=20u w=1u
X31 iovdd.t79 sg13g2_Clamp_N43N43D4R_0.gate.t51 iovss iovss sg13_hv_nmos ad=2.596p pd=5.58u as=1.408p ps=5.04u w=4.4u l=0.6u
X32 iovdd.t78 sg13g2_Clamp_N43N43D4R_0.gate.t52 iovss iovss sg13_hv_nmos ad=2.596p pd=5.58u as=1.408p ps=5.04u w=4.4u l=0.6u
X33 iovss sg13g2_Clamp_N43N43D4R_0.gate.t53 iovdd.t54 iovss sg13_hv_nmos ad=1.408p pd=5.04u as=2.596p ps=5.58u w=4.4u l=0.6u
X34 a_10045_11542# a_9715_7456# iovss rppd l=20u w=1u
X35 iovdd.t53 sg13g2_Clamp_N43N43D4R_0.gate.t54 iovss iovss sg13_hv_nmos ad=2.596p pd=5.58u as=1.408p ps=5.04u w=4.4u l=0.6u
X36 iovss sg13g2_Clamp_N43N43D4R_0.gate.t55 iovdd.t82 iovss sg13_hv_nmos ad=1.408p pd=5.04u as=2.596p ps=5.58u w=4.4u l=0.6u
X37 iovss sg13g2_Clamp_N43N43D4R_0.gate.t56 iovdd.t52 iovss sg13_hv_nmos ad=1.408p pd=5.04u as=2.596p ps=5.58u w=4.4u l=0.6u
X38 iovdd.t50 sg13g2_Clamp_N43N43D4R_0.gate.t57 iovss iovss sg13_hv_nmos ad=2.596p pd=5.58u as=1.408p ps=5.04u w=4.4u l=0.6u
X39 iovdd.t0 sg13g2_Clamp_N43N43D4R_0.gate.t58 iovss iovss sg13_hv_nmos ad=2.596p pd=5.58u as=1.408p ps=5.04u w=4.4u l=0.6u
X40 iovss sg13g2_Clamp_N43N43D4R_0.gate.t59 iovdd.t14 iovss sg13_hv_nmos ad=1.408p pd=5.04u as=2.596p ps=5.58u w=4.4u l=0.6u
X41 iovdd.t122 sg13g2_RCClampResistor_0.pin2.t1 sg13g2_Clamp_N43N43D4R_0.gate.t23 iovdd.t89 sg13_hv_pmos ad=1.33p pd=7.38u as=1.33p ps=7.38u w=7u l=0.5u
X42 iovss sg13g2_Clamp_N43N43D4R_0.gate.t60 iovdd.t12 iovss sg13_hv_nmos ad=1.408p pd=5.04u as=2.596p ps=5.58u w=4.4u l=0.6u
X43 sg13g2_Clamp_N43N43D4R_0.gate.t14 sg13g2_RCClampResistor_0.pin2.t1 iovdd.t131 iovdd.t89 sg13_hv_pmos ad=1.33p pd=7.38u as=1.33p ps=7.38u w=7u l=0.5u
X44 iovss sg13g2_RCClampResistor_0.pin2.t2 iovss iovss sg13_hv_nmos ad=1.71p pd=9.38u as=2.24759n ps=2.5228m w=9u l=9.5u
X45 iovss sg13g2_Clamp_N43N43D4R_0.gate.t61 iovdd.t9 iovss sg13_hv_nmos ad=1.408p pd=5.04u as=2.596p ps=5.58u w=4.4u l=0.6u
X46 iovss sg13g2_RCClampResistor_0.pin2.t2 iovss iovss sg13_hv_nmos ad=1.71p pd=9.38u as=0 ps=0 w=9u l=9.5u
X47 iovss sg13g2_Clamp_N43N43D4R_0.gate.t62 iovdd.t45 iovss sg13_hv_nmos ad=1.408p pd=5.04u as=2.596p ps=5.58u w=4.4u l=0.6u
X48 a_4105_11542# a_4435_7456# iovss rppd l=20u w=1u
X49 a_7405_11542# a_7735_7456# iovss rppd l=20u w=1u
X50 iovdd.t73 sg13g2_Clamp_N43N43D4R_0.gate.t63 iovss iovss sg13_hv_nmos ad=2.596p pd=5.58u as=1.408p ps=5.04u w=4.4u l=0.6u
X51 iovdd.t31 sg13g2_Clamp_N43N43D4R_0.gate.t64 iovss iovss sg13_hv_nmos ad=2.596p pd=5.58u as=1.408p ps=5.04u w=4.4u l=0.6u
X52 iovss sg13g2_Clamp_N43N43D4R_0.gate.t31 iovdd.t44 iovss sg13_hv_nmos ad=1.408p pd=5.04u as=2.596p ps=5.58u w=4.4u l=0.6u
X53 iovdd.t86 sg13g2_Clamp_N43N43D4R_0.gate.t65 iovss iovss sg13_hv_nmos ad=2.596p pd=5.58u as=1.408p ps=5.04u w=4.4u l=0.6u
X54 iovdd.t85 sg13g2_Clamp_N43N43D4R_0.gate.t66 iovss iovss sg13_hv_nmos ad=3.256p pd=10.28u as=1.408p ps=5.04u w=4.4u l=0.6u
X55 iovss sg13g2_Clamp_N43N43D4R_0.gate.t34 iovdd.t1 iovss sg13_hv_nmos ad=1.408p pd=5.04u as=2.596p ps=5.58u w=4.4u l=0.6u
X56 iovdd.t72 sg13g2_Clamp_N43N43D4R_0.gate.t67 iovss iovss sg13_hv_nmos ad=2.596p pd=5.58u as=1.408p ps=5.04u w=4.4u l=0.6u
X57 iovdd.t71 sg13g2_Clamp_N43N43D4R_0.gate.t68 iovss iovss sg13_hv_nmos ad=2.596p pd=5.58u as=1.408p ps=5.04u w=4.4u l=0.6u
X58 sg13g2_Clamp_N43N43D4R_0.gate.t22 sg13g2_RCClampResistor_0.pin2.t1 iovdd.t97 iovdd.t89 sg13_hv_pmos ad=1.33p pd=7.38u as=1.33p ps=7.38u w=7u l=0.5u
X59 sg13g2_Clamp_N43N43D4R_0.gate.t16 sg13g2_RCClampResistor_0.pin2.t1 iovdd.t104 iovdd.t89 sg13_hv_pmos ad=1.33p pd=7.38u as=1.33p ps=7.38u w=7u l=0.5u
X60 iovss sg13g2_Clamp_N43N43D4R_0.gate.t69 iovdd.t41 iovss sg13_hv_nmos ad=1.408p pd=5.04u as=2.596p ps=5.58u w=4.4u l=0.6u
X61 iovss sg13g2_RCClampResistor_0.pin2.t2 sg13g2_Clamp_N43N43D4R_0.gate.t28 iovss sg13_hv_nmos ad=1.71p pd=9.38u as=1.71p ps=9.38u w=9u l=0.5u
X62 iovss sg13g2_Clamp_N43N43D4R_0.gate.t70 iovdd.t13 iovss sg13_hv_nmos ad=1.408p pd=5.04u as=2.596p ps=5.58u w=4.4u l=0.6u
X63 iovss sg13g2_Clamp_N43N43D4R_0.gate.t71 iovdd.t51 iovss sg13_hv_nmos ad=1.408p pd=5.04u as=2.596p ps=5.58u w=4.4u l=0.6u
X64 iovdd.t84 sg13g2_Clamp_N43N43D4R_0.gate.t72 iovss iovss sg13_hv_nmos ad=2.596p pd=5.58u as=1.408p ps=5.04u w=4.4u l=0.6u
X65 sg13g2_Clamp_N43N43D4R_0.gate.t11 sg13g2_RCClampResistor_0.pin2.t1 iovdd.t103 iovdd.t89 sg13_hv_pmos ad=1.33p pd=7.38u as=1.33p ps=7.38u w=7u l=0.5u
X66 iovss sg13g2_RCClampResistor_0.pin2.t2 sg13g2_Clamp_N43N43D4R_0.gate.t27 iovss sg13_hv_nmos ad=1.71p pd=9.38u as=1.71p ps=9.38u w=9u l=0.5u
X67 sg13g2_Clamp_N43N43D4R_0.gate.t9 sg13g2_RCClampResistor_0.pin2.t1 iovdd.t102 iovdd.t89 sg13_hv_pmos ad=1.33p pd=7.38u as=1.33p ps=7.38u w=7u l=0.5u
X68 iovss sg13g2_RCClampResistor_0.pin2.t2 sg13g2_Clamp_N43N43D4R_0.gate.t26 iovss sg13_hv_nmos ad=1.71p pd=9.38u as=1.71p ps=9.38u w=9u l=0.5u
X69 iovss sg13g2_RCClampResistor_0.pin2.t2 iovss iovss sg13_hv_nmos ad=1.71p pd=9.38u as=0 ps=0 w=9u l=9.5u
X70 iovss sg13g2_Clamp_N43N43D4R_0.gate.t73 iovdd.t83 iovss sg13_hv_nmos ad=1.408p pd=5.04u as=2.596p ps=5.58u w=4.4u l=0.6u
X71 iovdd.t67 sg13g2_Clamp_N43N43D4R_0.gate.t74 iovss iovss sg13_hv_nmos ad=2.596p pd=5.58u as=1.408p ps=5.04u w=4.4u l=0.6u
X72 iovdd.t65 sg13g2_Clamp_N43N43D4R_0.gate.t75 iovss iovss sg13_hv_nmos ad=2.596p pd=5.58u as=1.408p ps=5.04u w=4.4u l=0.6u
X73 sg13g2_Clamp_N43N43D4R_0.gate.t7 sg13g2_RCClampResistor_0.pin2.t1 iovdd.t101 iovdd.t89 sg13_hv_pmos ad=1.33p pd=7.38u as=1.33p ps=7.38u w=7u l=0.5u
X74 iovss sg13g2_RCClampResistor_0.pin2.t2 sg13g2_Clamp_N43N43D4R_0.gate.t25 iovss sg13_hv_nmos ad=1.71p pd=9.38u as=1.71p ps=9.38u w=9u l=0.5u
X75 iovss sg13g2_RCClampResistor_0.pin2.t2 iovss iovss sg13_hv_nmos ad=1.71p pd=9.38u as=0 ps=0 w=9u l=9.5u
X76 iovdd.t83 sg13g2_Clamp_N43N43D4R_0.gate.t76 iovss iovss sg13_hv_nmos ad=2.596p pd=5.58u as=2.068p ps=9.74u w=4.4u l=0.6u
X77 sg13g2_Clamp_N43N43D4R_0.gate.t12 sg13g2_RCClampResistor_0.pin2.t1 iovdd.t100 iovdd.t89 sg13_hv_pmos ad=1.33p pd=7.38u as=1.33p ps=7.38u w=7u l=0.5u
X78 iovss sg13g2_RCClampResistor_0.pin2.t2 iovss iovss sg13_hv_nmos ad=1.71p pd=9.38u as=0 ps=0 w=9u l=9.5u
X79 iovdd.t64 sg13g2_Clamp_N43N43D4R_0.gate.t77 iovss iovss sg13_hv_nmos ad=2.596p pd=5.58u as=1.408p ps=5.04u w=4.4u l=0.6u
X80 iovss sg13g2_Clamp_N43N43D4R_0.gate.t78 iovdd.t32 iovss sg13_hv_nmos ad=1.408p pd=5.04u as=2.596p ps=5.58u w=4.4u l=0.6u
X81 a_4765_11542# a_5095_7456# iovss rppd l=20u w=1u
X82 a_8065_11542# a_8395_7456# iovss rppd l=20u w=1u
X83 iovdd.t36 sg13g2_Clamp_N43N43D4R_0.gate.t45 iovss iovss sg13_hv_nmos ad=2.596p pd=5.58u as=1.408p ps=5.04u w=4.4u l=0.6u
X84 iovdd.t18 sg13g2_Clamp_N43N43D4R_0.gate.t79 iovss iovss sg13_hv_nmos ad=2.596p pd=5.58u as=1.408p ps=5.04u w=4.4u l=0.6u
X85 iovdd.t63 sg13g2_Clamp_N43N43D4R_0.gate.t80 iovss iovss sg13_hv_nmos ad=2.596p pd=5.58u as=1.408p ps=5.04u w=4.4u l=0.6u
X86 iovss sg13g2_RCClampResistor_0.pin2.t2 iovss iovss sg13_hv_nmos ad=1.71p pd=9.38u as=0 ps=0 w=9u l=9.5u
X87 iovdd.t15 sg13g2_Clamp_N43N43D4R_0.gate.t81 iovss iovss sg13_hv_nmos ad=2.596p pd=5.58u as=1.408p ps=5.04u w=4.4u l=0.6u
X88 sg13g2_Clamp_N43N43D4R_0.gate.t5 sg13g2_RCClampResistor_0.pin2.t1 iovdd.t111 iovdd.t89 sg13_hv_pmos ad=1.33p pd=7.38u as=1.33p ps=7.38u w=7u l=0.5u
X89 iovdd.t82 sg13g2_Clamp_N43N43D4R_0.gate.t82 iovss iovss sg13_hv_nmos ad=2.596p pd=5.58u as=1.408p ps=5.04u w=4.4u l=0.6u
X90 sg13g2_Clamp_N43N43D4R_0.gate.t15 sg13g2_RCClampResistor_0.pin2.t1 iovdd.t106 iovdd.t89 sg13_hv_pmos ad=1.33p pd=7.38u as=1.33p ps=7.38u w=7u l=0.5u
X91 iovss sg13g2_Clamp_N43N43D4R_0.gate.t83 iovdd.t81 iovss sg13_hv_nmos ad=1.408p pd=5.04u as=2.596p ps=5.58u w=4.4u l=0.6u
X92 sg13g2_Clamp_N43N43D4R_0.gate.t19 sg13g2_RCClampResistor_0.pin2.t1 iovdd.t122 iovdd.t89 sg13_hv_pmos ad=1.33p pd=7.38u as=1.33p ps=7.38u w=7u l=0.5u
X93 iovss sg13g2_RCClampResistor_0.pin2.t2 sg13g2_Clamp_N43N43D4R_0.gate.t30 iovss sg13_hv_nmos ad=1.71p pd=9.38u as=1.71p ps=9.38u w=9u l=0.5u
X94 iovdd.t81 sg13g2_Clamp_N43N43D4R_0.gate.t84 iovss iovss sg13_hv_nmos ad=2.596p pd=5.58u as=1.408p ps=5.04u w=4.4u l=0.6u
X95 iovss sg13g2_Clamp_N43N43D4R_0.gate.t85 iovdd.t80 iovss sg13_hv_nmos ad=1.408p pd=5.04u as=2.596p ps=5.58u w=4.4u l=0.6u
X96 iovdd.t61 sg13g2_Clamp_N43N43D4R_0.gate.t86 iovss iovss sg13_hv_nmos ad=2.596p pd=5.58u as=1.408p ps=5.04u w=4.4u l=0.6u
X97 sg13g2_Clamp_N43N43D4R_0.gate.t0 sg13g2_RCClampResistor_0.pin2.t1 iovdd.t105 iovdd.t89 sg13_hv_pmos ad=1.33p pd=7.38u as=1.33p ps=7.38u w=7u l=0.5u
X98 sg13g2_Clamp_N43N43D4R_0.gate.t1 sg13g2_RCClampResistor_0.pin2.t1 iovdd.t96 iovdd.t89 sg13_hv_pmos ad=1.33p pd=7.38u as=1.33p ps=7.38u w=7u l=0.5u
X99 iovss sg13g2_RCClampResistor_0.pin2.t2 sg13g2_Clamp_N43N43D4R_0.gate.t29 iovss sg13_hv_nmos ad=1.71p pd=9.38u as=1.71p ps=9.38u w=9u l=0.5u
X100 iovdd.t59 sg13g2_Clamp_N43N43D4R_0.gate.t52 iovss iovss sg13_hv_nmos ad=2.596p pd=5.58u as=1.408p ps=5.04u w=4.4u l=0.6u
X101 iovdd.t10 sg13g2_Clamp_N43N43D4R_0.gate.t87 iovss iovss sg13_hv_nmos ad=2.596p pd=5.58u as=1.408p ps=5.04u w=4.4u l=0.6u
X102 iovdd.t25 sg13g2_Clamp_N43N43D4R_0.gate.t54 iovss iovss sg13_hv_nmos ad=2.596p pd=5.58u as=1.408p ps=5.04u w=4.4u l=0.6u
X103 a_10705_11542# a_11035_7456# iovss rppd l=20u w=1u
X104 iovdd.t46 sg13g2_Clamp_N43N43D4R_0.gate.t88 iovss iovss sg13_hv_nmos ad=2.596p pd=5.58u as=1.408p ps=5.04u w=4.4u l=0.6u
X105 sg13g2_Clamp_N43N43D4R_0.gate.t6 sg13g2_RCClampResistor_0.pin2.t1 iovdd.t94 iovdd.t89 sg13_hv_pmos ad=1.33p pd=7.38u as=1.33p ps=7.38u w=7u l=0.5u
X106 iovdd.t57 sg13g2_Clamp_N43N43D4R_0.gate.t89 iovss iovss sg13_hv_nmos ad=2.596p pd=5.58u as=1.408p ps=5.04u w=4.4u l=0.6u
X107 sg13g2_Clamp_N43N43D4R_0.gate.t17 sg13g2_RCClampResistor_0.pin2.t1 iovdd.t90 iovdd.t89 sg13_hv_pmos ad=1.33p pd=7.38u as=1.33p ps=7.38u w=7u l=0.5u
X108 iovdd.t88 a_3775_7456# iovss rppd l=20u w=1u
X109 iovss sg13g2_Clamp_N43N43D4R_0.gate.t90 iovdd.t34 iovss sg13_hv_nmos ad=1.408p pd=5.04u as=2.596p ps=5.58u w=4.4u l=0.6u
X110 sg13g2_Clamp_N43N43D4R_0.gate.t24 sg13g2_RCClampResistor_0.pin2.t1 iovdd.t117 iovdd.t89 sg13_hv_pmos ad=1.33p pd=7.38u as=1.33p ps=7.38u w=7u l=0.5u
X111 iovss sg13g2_Clamp_N43N43D4R_0.gate.t37 iovdd.t79 iovss sg13_hv_nmos ad=1.408p pd=5.04u as=2.596p ps=5.58u w=4.4u l=0.6u
X112 iovss sg13g2_Clamp_N43N43D4R_0.gate.t91 iovdd.t78 iovss sg13_hv_nmos ad=1.408p pd=5.04u as=2.596p ps=5.58u w=4.4u l=0.6u
X113 sg13g2_Clamp_N43N43D4R_0.gate.t4 sg13g2_RCClampResistor_0.pin2.t1 iovdd.t92 iovdd.t89 sg13_hv_pmos ad=1.33p pd=7.38u as=1.33p ps=7.38u w=7u l=0.5u
X114 iovss sg13g2_Clamp_N43N43D4R_0.gate.t92 iovdd.t77 iovss sg13_hv_nmos ad=1.408p pd=5.04u as=2.596p ps=5.58u w=4.4u l=0.6u
X115 sg13g2_Clamp_N43N43D4R_0.gate.t23 sg13g2_RCClampResistor_0.pin2.t1 iovdd.t115 iovdd.t89 sg13_hv_pmos ad=1.33p pd=7.38u as=1.33p ps=7.38u w=7u l=0.5u
X116 iovdd.t77 sg13g2_Clamp_N43N43D4R_0.gate.t93 iovss iovss sg13_hv_nmos ad=2.596p pd=5.58u as=1.408p ps=5.04u w=4.4u l=0.6u
X117 iovss sg13g2_Clamp_N43N43D4R_0.gate.t94 iovdd.t75 iovss sg13_hv_nmos ad=1.408p pd=5.04u as=2.596p ps=5.58u w=4.4u l=0.6u
X118 a_5425_11542# a_5095_7456# iovss rppd l=20u w=1u
X119 a_8725_11542# a_8395_7456# iovss rppd l=20u w=1u
X120 iovdd.t76 sg13g2_Clamp_N43N43D4R_0.gate.t66 iovss iovss sg13_hv_nmos ad=3.256p pd=10.28u as=1.408p ps=5.04u w=4.4u l=0.6u
X121 iovdd.t75 sg13g2_Clamp_N43N43D4R_0.gate.t95 iovss iovss sg13_hv_nmos ad=2.596p pd=5.58u as=1.408p ps=5.04u w=4.4u l=0.6u
X122 iovdd.t47 sg13g2_Clamp_N43N43D4R_0.gate.t96 iovss iovss sg13_hv_nmos ad=2.596p pd=5.58u as=1.408p ps=5.04u w=4.4u l=0.6u
X123 iovdd.t48 sg13g2_Clamp_N43N43D4R_0.gate.t67 iovss iovss sg13_hv_nmos ad=2.596p pd=5.58u as=1.408p ps=5.04u w=4.4u l=0.6u
X124 iovdd.t74 sg13g2_Clamp_N43N43D4R_0.gate.t97 iovss iovss sg13_hv_nmos ad=2.596p pd=5.58u as=1.408p ps=5.04u w=4.4u l=0.6u
X125 iovss sg13g2_Clamp_N43N43D4R_0.gate.t44 iovdd.t24 iovss sg13_hv_nmos ad=1.408p pd=5.04u as=2.596p ps=5.58u w=4.4u l=0.6u
X126 iovss sg13g2_Clamp_N43N43D4R_0.gate.t48 iovdd.t73 iovss sg13_hv_nmos ad=1.408p pd=5.04u as=2.596p ps=5.58u w=4.4u l=0.6u
X127 iovss sg13g2_Clamp_N43N43D4R_0.gate.t98 iovdd.t56 iovss sg13_hv_nmos ad=1.408p pd=5.04u as=2.596p ps=5.58u w=4.4u l=0.6u
X128 iovss sg13g2_Clamp_N43N43D4R_0.gate.t71 iovdd.t21 iovss sg13_hv_nmos ad=1.408p pd=5.04u as=2.596p ps=5.58u w=4.4u l=0.6u
X129 iovdd.t6 sg13g2_Clamp_N43N43D4R_0.gate.t33 iovss iovss sg13_hv_nmos ad=2.596p pd=5.58u as=1.408p ps=5.04u w=4.4u l=0.6u
X130 sg13g2_Clamp_N43N43D4R_0.gate.t10 sg13g2_RCClampResistor_0.pin2.t1 iovdd.t114 iovdd.t89 sg13_hv_pmos ad=1.33p pd=7.38u as=2.38p ps=14.68u w=7u l=0.5u
X131 iovss sg13g2_RCClampResistor_0.pin2.t2 iovss iovss sg13_hv_nmos ad=1.71p pd=9.38u as=0 ps=0 w=9u l=9.5u
X132 iovss sg13g2_RCClampResistor_0.pin2.t2 iovss iovss sg13_hv_nmos ad=1.71p pd=9.38u as=0 ps=0 w=9u l=9.5u
X133 iovss sg13g2_Clamp_N43N43D4R_0.gate.t36 iovdd.t72 iovss sg13_hv_nmos ad=1.408p pd=5.04u as=2.596p ps=5.58u w=4.4u l=0.6u
X134 iovss sg13g2_Clamp_N43N43D4R_0.gate.t73 iovdd.t70 iovss sg13_hv_nmos ad=1.408p pd=5.04u as=2.596p ps=5.58u w=4.4u l=0.6u
X135 iovdd.t43 sg13g2_Clamp_N43N43D4R_0.gate.t74 iovss iovss sg13_hv_nmos ad=2.596p pd=5.58u as=1.408p ps=5.04u w=4.4u l=0.6u
X136 iovss sg13g2_Clamp_N43N43D4R_0.gate.t99 iovdd.t71 iovss sg13_hv_nmos ad=1.408p pd=5.04u as=2.596p ps=5.58u w=4.4u l=0.6u
X137 iovdd.t70 sg13g2_Clamp_N43N43D4R_0.gate.t76 iovss iovss sg13_hv_nmos ad=2.596p pd=5.58u as=2.068p ps=9.74u w=4.4u l=0.6u
X138 iovdd.t42 sg13g2_Clamp_N43N43D4R_0.gate.t77 iovss iovss sg13_hv_nmos ad=2.596p pd=5.58u as=1.408p ps=5.04u w=4.4u l=0.6u
X139 iovdd.t69 sg13g2_Clamp_N43N43D4R_0.gate.t79 iovss iovss sg13_hv_nmos ad=2.596p pd=5.58u as=1.408p ps=5.04u w=4.4u l=0.6u
X140 a_6085_11542# a_5755_7456# iovss rppd l=20u w=1u
X141 a_9385_11542# a_9055_7456# iovss rppd l=20u w=1u
X142 iovss sg13g2_Clamp_N43N43D4R_0.gate.t41 iovdd.t49 iovss sg13_hv_nmos ad=1.408p pd=5.04u as=2.596p ps=5.58u w=4.4u l=0.6u
X143 iovss sg13g2_Clamp_N43N43D4R_0.gate.t56 iovdd.t68 iovss sg13_hv_nmos ad=1.408p pd=5.04u as=2.596p ps=5.58u w=4.4u l=0.6u
X144 iovss sg13g2_Clamp_N43N43D4R_0.gate.t43 iovdd.t67 iovss sg13_hv_nmos ad=1.408p pd=5.04u as=2.596p ps=5.58u w=4.4u l=0.6u
X145 iovdd.t66 sg13g2_Clamp_N43N43D4R_0.gate.t42 iovss iovss sg13_hv_nmos ad=2.596p pd=5.58u as=1.408p ps=5.04u w=4.4u l=0.6u
X146 iovss sg13g2_Clamp_N43N43D4R_0.gate.t60 iovdd.t65 iovss sg13_hv_nmos ad=1.408p pd=5.04u as=2.596p ps=5.58u w=4.4u l=0.6u
X147 a_10045_11542# a_10375_7456# iovss rppd l=20u w=1u
X148 sg13g2_Clamp_N43N43D4R_0.gate.t21 sg13g2_RCClampResistor_0.pin2.t1 iovdd.t113 iovdd.t89 sg13_hv_pmos ad=1.33p pd=7.38u as=1.33p ps=7.38u w=7u l=0.5u
X149 iovss sg13g2_Clamp_N43N43D4R_0.gate.t46 iovdd.t64 iovss sg13_hv_nmos ad=1.408p pd=5.04u as=2.596p ps=5.58u w=4.4u l=0.6u
X150 iovss sg13g2_Clamp_N43N43D4R_0.gate.t100 iovdd.t8 iovss sg13_hv_nmos ad=1.408p pd=5.04u as=2.596p ps=5.58u w=4.4u l=0.6u
X151 sg13g2_Clamp_N43N43D4R_0.gate.t13 sg13g2_RCClampResistor_0.pin2.t1 iovdd.t99 iovdd.t89 sg13_hv_pmos ad=1.33p pd=7.38u as=1.33p ps=7.38u w=7u l=0.5u
X152 iovss sg13g2_Clamp_N43N43D4R_0.gate.t101 iovdd.t63 iovss sg13_hv_nmos ad=1.408p pd=5.04u as=2.596p ps=5.58u w=4.4u l=0.6u
X153 iovdd.t111 sg13g2_RCClampResistor_0.pin2.t1 sg13g2_Clamp_N43N43D4R_0.gate.t4 iovdd.t89 sg13_hv_pmos ad=1.33p pd=7.38u as=1.33p ps=7.38u w=7u l=0.5u
X154 sg13g2_Clamp_N43N43D4R_0.gate.t2 sg13g2_RCClampResistor_0.pin2.t1 iovdd.t98 iovdd.t89 sg13_hv_pmos ad=1.33p pd=7.38u as=1.33p ps=7.38u w=7u l=0.5u
X155 iovdd.t17 sg13g2_Clamp_N43N43D4R_0.gate.t88 iovss iovss sg13_hv_nmos ad=2.596p pd=5.58u as=1.408p ps=5.04u w=4.4u l=0.6u
X156 iovss sg13g2_Clamp_N43N43D4R_0.gate.t31 iovdd.t62 iovss sg13_hv_nmos ad=1.408p pd=5.04u as=2.596p ps=5.58u w=4.4u l=0.6u
X157 sg13g2_RCClampResistor_0.pin2.t0 a_11695_7456# iovss rppd l=20u w=1u
X158 iovss sg13g2_Clamp_N43N43D4R_0.gate.t90 iovdd.t2 iovss sg13_hv_nmos ad=1.408p pd=5.04u as=2.596p ps=5.58u w=4.4u l=0.6u
X159 iovss sg13g2_Clamp_N43N43D4R_0.gate.t34 iovdd.t61 iovss sg13_hv_nmos ad=1.408p pd=5.04u as=2.596p ps=5.58u w=4.4u l=0.6u
X160 iovdd.t28 sg13g2_Clamp_N43N43D4R_0.gate.t51 iovss iovss sg13_hv_nmos ad=2.596p pd=5.58u as=1.408p ps=5.04u w=4.4u l=0.6u
X161 sg13g2_Clamp_N43N43D4R_0.gate.t18 sg13g2_RCClampResistor_0.pin2.t1 iovdd.t109 iovdd.t89 sg13_hv_pmos ad=1.33p pd=7.38u as=1.33p ps=7.38u w=7u l=0.5u
X162 a_4765_11542# a_4435_7456# iovss rppd l=20u w=1u
X163 iovss sg13g2_Clamp_N43N43D4R_0.gate.t53 iovdd.t60 iovss sg13_hv_nmos ad=1.408p pd=5.04u as=2.596p ps=5.58u w=4.4u l=0.6u
X164 iovss sg13g2_Clamp_N43N43D4R_0.gate.t91 iovdd.t59 iovss sg13_hv_nmos ad=1.408p pd=5.04u as=2.596p ps=5.58u w=4.4u l=0.6u
X165 iovss sg13g2_Clamp_N43N43D4R_0.gate.t102 iovdd.t58 iovss sg13_hv_nmos ad=1.408p pd=5.04u as=2.596p ps=5.58u w=4.4u l=0.6u
X166 iovdd.t108 sg13g2_RCClampResistor_0.pin2.t1 sg13g2_Clamp_N43N43D4R_0.gate.t2 iovdd.t89 sg13_hv_pmos ad=1.33p pd=7.38u as=1.33p ps=7.38u w=7u l=0.5u
X167 iovss sg13g2_Clamp_N43N43D4R_0.gate.t92 iovdd.t55 iovss sg13_hv_nmos ad=1.408p pd=5.04u as=2.596p ps=5.58u w=4.4u l=0.6u
X168 iovss sg13g2_Clamp_N43N43D4R_0.gate.t103 iovdd.t57 iovss sg13_hv_nmos ad=1.408p pd=5.04u as=2.596p ps=5.58u w=4.4u l=0.6u
X169 iovdd.t56 sg13g2_Clamp_N43N43D4R_0.gate.t58 iovss iovss sg13_hv_nmos ad=2.596p pd=5.58u as=1.408p ps=5.04u w=4.4u l=0.6u
X170 sg13g2_Clamp_N43N43D4R_0.gate.t20 sg13g2_RCClampResistor_0.pin2.t1 iovdd.t95 iovdd.t89 sg13_hv_pmos ad=1.33p pd=7.38u as=1.33p ps=7.38u w=7u l=0.5u
X171 iovdd.t55 sg13g2_Clamp_N43N43D4R_0.gate.t93 iovss iovss sg13_hv_nmos ad=2.596p pd=5.58u as=1.408p ps=5.04u w=4.4u l=0.6u
X172 a_9385_11542# a_9715_7456# iovss rppd l=20u w=1u
X173 iovss sg13g2_RCClampResistor_0.pin2.t2 iovss iovss sg13_hv_nmos ad=1.71p pd=9.38u as=0 ps=0 w=9u l=9.5u
X174 a_6085_11542# a_6415_7456# iovss rppd l=20u w=1u
X175 iovdd.t54 sg13g2_Clamp_N43N43D4R_0.gate.t45 iovss iovss sg13_hv_nmos ad=2.596p pd=5.58u as=1.408p ps=5.04u w=4.4u l=0.6u
X176 iovss sg13g2_RCClampResistor_0.pin2.t2 iovss iovss sg13_hv_nmos ad=1.71p pd=9.38u as=0 ps=0 w=9u l=9.5u
X177 a_10705_11542# a_10375_7456# iovss rppd l=20u w=1u
X178 iovss sg13g2_Clamp_N43N43D4R_0.gate.t98 iovdd.t30 iovss sg13_hv_nmos ad=1.408p pd=5.04u as=2.596p ps=5.58u w=4.4u l=0.6u
X179 iovss sg13g2_Clamp_N43N43D4R_0.gate.t62 iovdd.t53 iovss sg13_hv_nmos ad=1.408p pd=5.04u as=2.596p ps=5.58u w=4.4u l=0.6u
X180 iovdd.t52 sg13g2_Clamp_N43N43D4R_0.gate.t33 iovss iovss sg13_hv_nmos ad=2.596p pd=5.58u as=1.408p ps=5.04u w=4.4u l=0.6u
X181 iovdd.t51 sg13g2_Clamp_N43N43D4R_0.gate.t64 iovss iovss sg13_hv_nmos ad=2.596p pd=5.58u as=1.408p ps=5.04u w=4.4u l=0.6u
X182 iovdd.t16 sg13g2_Clamp_N43N43D4R_0.gate.t63 iovss iovss sg13_hv_nmos ad=2.596p pd=5.58u as=1.408p ps=5.04u w=4.4u l=0.6u
X183 iovss sg13g2_Clamp_N43N43D4R_0.gate.t104 iovdd.t50 iovss sg13_hv_nmos ad=1.408p pd=5.04u as=2.596p ps=5.58u w=4.4u l=0.6u
X184 iovdd.t49 sg13g2_Clamp_N43N43D4R_0.gate.t65 iovss iovss sg13_hv_nmos ad=2.596p pd=5.58u as=1.408p ps=5.04u w=4.4u l=0.6u
X185 iovss sg13g2_Clamp_N43N43D4R_0.gate.t36 iovdd.t48 iovss sg13_hv_nmos ad=1.408p pd=5.04u as=2.596p ps=5.58u w=4.4u l=0.6u
X186 iovss sg13g2_Clamp_N43N43D4R_0.gate.t105 iovdd.t47 iovss sg13_hv_nmos ad=1.408p pd=5.04u as=2.596p ps=5.58u w=4.4u l=0.6u
X187 iovdd.t106 sg13g2_RCClampResistor_0.pin2.t1 sg13g2_Clamp_N43N43D4R_0.gate.t14 iovdd.t89 sg13_hv_pmos ad=1.33p pd=7.38u as=1.33p ps=7.38u w=7u l=0.5u
X188 iovss sg13g2_Clamp_N43N43D4R_0.gate.t70 iovdd.t46 iovss sg13_hv_nmos ad=1.408p pd=5.04u as=2.596p ps=5.58u w=4.4u l=0.6u
X189 iovdd.t7 sg13g2_Clamp_N43N43D4R_0.gate.t52 iovss iovss sg13_hv_nmos ad=2.596p pd=5.58u as=1.408p ps=5.04u w=4.4u l=0.6u
X190 iovdd.t105 sg13g2_RCClampResistor_0.pin2.t1 sg13g2_Clamp_N43N43D4R_0.gate.t13 iovdd.t89 sg13_hv_pmos ad=1.33p pd=7.38u as=1.33p ps=7.38u w=7u l=0.5u
X191 iovdd.t45 sg13g2_Clamp_N43N43D4R_0.gate.t54 iovss iovss sg13_hv_nmos ad=2.596p pd=5.58u as=1.408p ps=5.04u w=4.4u l=0.6u
X192 iovss sg13g2_Clamp_N43N43D4R_0.gate.t41 iovdd.t20 iovss sg13_hv_nmos ad=1.408p pd=5.04u as=2.596p ps=5.58u w=4.4u l=0.6u
X193 a_6745_11542# a_7075_7456# iovss rppd l=20u w=1u
X194 iovdd.t44 sg13g2_Clamp_N43N43D4R_0.gate.t42 iovss iovss sg13_hv_nmos ad=2.596p pd=5.58u as=1.408p ps=5.04u w=4.4u l=0.6u
X195 iovss sg13g2_Clamp_N43N43D4R_0.gate.t43 iovdd.t43 iovss sg13_hv_nmos ad=1.408p pd=5.04u as=2.596p ps=5.58u w=4.4u l=0.6u
X196 iovdd.t5 sg13g2_Clamp_N43N43D4R_0.gate.t75 iovss iovss sg13_hv_nmos ad=2.596p pd=5.58u as=1.408p ps=5.04u w=4.4u l=0.6u
X197 iovdd.t104 sg13g2_RCClampResistor_0.pin2.t1 sg13g2_Clamp_N43N43D4R_0.gate.t22 iovdd.t89 sg13_hv_pmos ad=1.33p pd=7.38u as=1.33p ps=7.38u w=7u l=0.5u
X198 a_11365_11542# a_11035_7456# iovss rppd l=20u w=1u
X199 iovss sg13g2_Clamp_N43N43D4R_0.gate.t46 iovdd.t42 iovss sg13_hv_nmos ad=1.408p pd=5.04u as=2.596p ps=5.58u w=4.4u l=0.6u
X200 iovdd.t41 sg13g2_Clamp_N43N43D4R_0.gate.t106 iovss iovss sg13_hv_nmos ad=2.596p pd=5.58u as=1.408p ps=5.04u w=4.4u l=0.6u
X201 sg13g2_Clamp_N43N43D4R_0.gate.t28 sg13g2_RCClampResistor_0.pin2.t2 iovss iovss sg13_hv_nmos ad=1.71p pd=9.38u as=1.71p ps=9.38u w=9u l=0.5u
X202 iovss sg13g2_RCClampResistor_0.pin2.t2 iovss iovss sg13_hv_nmos ad=1.71p pd=9.38u as=0 ps=0 w=9u l=9.5u
X203 iovdd.t103 sg13g2_RCClampResistor_0.pin2.t1 sg13g2_Clamp_N43N43D4R_0.gate.t1 iovdd.t89 sg13_hv_pmos ad=1.33p pd=7.38u as=1.33p ps=7.38u w=7u l=0.5u
X204 sg13g2_Clamp_N43N43D4R_0.gate.t27 sg13g2_RCClampResistor_0.pin2.t2 iovss iovss sg13_hv_nmos ad=1.71p pd=9.38u as=1.71p ps=9.38u w=9u l=0.5u
X205 iovss sg13g2_RCClampResistor_0.pin2.t2 iovss iovss sg13_hv_nmos ad=1.71p pd=9.38u as=0 ps=0 w=9u l=9.5u
X206 iovdd.t102 sg13g2_RCClampResistor_0.pin2.t1 sg13g2_Clamp_N43N43D4R_0.gate.t8 iovdd.t89 sg13_hv_pmos ad=1.33p pd=7.38u as=1.33p ps=7.38u w=7u l=0.5u
X207 sg13g2_Clamp_N43N43D4R_0.gate.t26 sg13g2_RCClampResistor_0.pin2.t2 iovss iovss sg13_hv_nmos ad=1.71p pd=9.38u as=3.06p ps=18.68u w=9u l=0.5u
X208 iovss sg13g2_Clamp_N43N43D4R_0.gate.t83 iovdd.t40 iovss sg13_hv_nmos ad=1.408p pd=5.04u as=2.596p ps=5.58u w=4.4u l=0.6u
X209 sg13g2_Clamp_N43N43D4R_0.gate.t25 sg13g2_RCClampResistor_0.pin2.t2 iovss iovss sg13_hv_nmos ad=1.71p pd=9.38u as=3.06p ps=18.68u w=9u l=0.5u
X210 iovdd.t40 sg13g2_Clamp_N43N43D4R_0.gate.t84 iovss iovss sg13_hv_nmos ad=2.596p pd=5.58u as=1.408p ps=5.04u w=4.4u l=0.6u
X211 iovdd.t39 sg13g2_Clamp_N43N43D4R_0.gate.t66 iovss iovss sg13_hv_nmos ad=3.256p pd=10.28u as=1.408p ps=5.04u w=4.4u l=0.6u
X212 iovdd.t101 sg13g2_RCClampResistor_0.pin2.t1 sg13g2_Clamp_N43N43D4R_0.gate.t6 iovdd.t89 sg13_hv_pmos ad=1.33p pd=7.38u as=1.33p ps=7.38u w=7u l=0.5u
X213 iovdd.t38 sg13g2_Clamp_N43N43D4R_0.gate.t86 iovss iovss sg13_hv_nmos ad=2.596p pd=5.58u as=1.408p ps=5.04u w=4.4u l=0.6u
X214 iovdd.t37 sg13g2_Clamp_N43N43D4R_0.gate.t67 iovss iovss sg13_hv_nmos ad=2.596p pd=5.58u as=1.408p ps=5.04u w=4.4u l=0.6u
X215 iovdd.t100 sg13g2_RCClampResistor_0.pin2.t1 sg13g2_Clamp_N43N43D4R_0.gate.t17 iovdd.t89 sg13_hv_pmos ad=1.33p pd=7.38u as=1.33p ps=7.38u w=7u l=0.5u
X216 iovdd.t99 sg13g2_RCClampResistor_0.pin2.t1 sg13g2_Clamp_N43N43D4R_0.gate.t12 iovdd.t89 sg13_hv_pmos ad=1.33p pd=7.38u as=1.33p ps=7.38u w=7u l=0.5u
X217 iovss sg13g2_Clamp_N43N43D4R_0.gate.t53 iovdd.t36 iovss sg13_hv_nmos ad=1.408p pd=5.04u as=2.596p ps=5.58u w=4.4u l=0.6u
X218 iovdd.t35 sg13g2_Clamp_N43N43D4R_0.gate.t51 iovss iovss sg13_hv_nmos ad=2.596p pd=5.58u as=1.408p ps=5.04u w=4.4u l=0.6u
X219 iovdd.t34 sg13g2_Clamp_N43N43D4R_0.gate.t87 iovss iovss sg13_hv_nmos ad=2.596p pd=5.58u as=1.408p ps=5.04u w=4.4u l=0.6u
X220 iovdd.t33 sg13g2_Clamp_N43N43D4R_0.gate.t107 iovss iovss sg13_hv_nmos ad=2.596p pd=5.58u as=1.408p ps=5.04u w=4.4u l=0.6u
X221 a_5425_11542# a_5755_7456# iovss rppd l=20u w=1u
X222 iovdd.t32 sg13g2_Clamp_N43N43D4R_0.gate.t108 iovss iovss sg13_hv_nmos ad=2.596p pd=5.58u as=1.408p ps=5.04u w=4.4u l=0.6u
X223 iovss sg13g2_Clamp_N43N43D4R_0.gate.t71 iovdd.t31 iovss sg13_hv_nmos ad=1.408p pd=5.04u as=2.596p ps=5.58u w=4.4u l=0.6u
X224 iovdd.t98 sg13g2_RCClampResistor_0.pin2.t1 sg13g2_Clamp_N43N43D4R_0.gate.t5 iovdd.t89 sg13_hv_pmos ad=1.33p pd=7.38u as=1.33p ps=7.38u w=7u l=0.5u
X225 iovdd.t30 sg13g2_Clamp_N43N43D4R_0.gate.t58 iovss iovss sg13_hv_nmos ad=2.596p pd=5.58u as=1.408p ps=5.04u w=4.4u l=0.6u
X226 iovdd.t97 sg13g2_RCClampResistor_0.pin2.t1 sg13g2_Clamp_N43N43D4R_0.gate.t15 iovdd.t89 sg13_hv_pmos ad=1.33p pd=7.38u as=1.33p ps=7.38u w=7u l=0.5u
X227 iovss sg13g2_RCClampResistor_0.pin2.t2 iovss iovss sg13_hv_nmos ad=1.71p pd=9.38u as=0 ps=0 w=9u l=9.5u
X228 iovdd.t29 sg13g2_Clamp_N43N43D4R_0.gate.t74 iovss iovss sg13_hv_nmos ad=2.596p pd=5.58u as=1.408p ps=5.04u w=4.4u l=0.6u
X229 iovss sg13g2_Clamp_N43N43D4R_0.gate.t73 iovdd.t27 iovss sg13_hv_nmos ad=1.408p pd=5.04u as=2.596p ps=5.58u w=4.4u l=0.6u
X230 iovss sg13g2_Clamp_N43N43D4R_0.gate.t37 iovdd.t28 iovss sg13_hv_nmos ad=1.408p pd=5.04u as=2.596p ps=5.58u w=4.4u l=0.6u
X231 iovss sg13g2_RCClampResistor_0.pin2.t2 iovss iovss sg13_hv_nmos ad=1.71p pd=9.38u as=0 ps=0 w=9u l=9.5u
X232 a_4105_11542# a_3775_7456# iovss rppd l=20u w=1u
X233 a_7405_11542# a_7075_7456# iovss rppd l=20u w=1u
X234 iovdd.t27 sg13g2_Clamp_N43N43D4R_0.gate.t76 iovss iovss sg13_hv_nmos ad=2.596p pd=5.58u as=2.068p ps=9.74u w=4.4u l=0.6u
X235 iovdd.t96 sg13g2_RCClampResistor_0.pin2.t1 sg13g2_Clamp_N43N43D4R_0.gate.t0 iovdd.t89 sg13_hv_pmos ad=1.33p pd=7.38u as=1.33p ps=7.38u w=7u l=0.5u
X236 iovdd.t26 sg13g2_Clamp_N43N43D4R_0.gate.t77 iovss iovss sg13_hv_nmos ad=2.596p pd=5.58u as=1.408p ps=5.04u w=4.4u l=0.6u
X237 iovss sg13g2_Clamp_N43N43D4R_0.gate.t62 iovdd.t25 iovss sg13_hv_nmos ad=1.408p pd=5.04u as=2.596p ps=5.58u w=4.4u l=0.6u
X238 iovdd.t24 sg13g2_Clamp_N43N43D4R_0.gate.t79 iovss iovss sg13_hv_nmos ad=2.596p pd=5.58u as=1.408p ps=5.04u w=4.4u l=0.6u
X239 iovdd.t95 sg13g2_RCClampResistor_0.pin2.t1 sg13g2_Clamp_N43N43D4R_0.gate.t7 iovdd.t89 sg13_hv_pmos ad=1.33p pd=7.38u as=1.33p ps=7.38u w=7u l=0.5u
X240 iovdd.t23 sg13g2_Clamp_N43N43D4R_0.gate.t63 iovss iovss sg13_hv_nmos ad=2.596p pd=5.58u as=1.408p ps=5.04u w=4.4u l=0.6u