* NGSPICE file created from sg13g2_IOPadVdd_flat.ext - technology: ihp-sg13g2

.subckt sg13g2_IOPadVdd_flat vdd vss iovdd iovss
X0 iovss sg13g2_RCClampInverter_0.out.t31 vdd.t117 iovss sg13_hv_nmos ad=1.408p pd=5.04u as=2.596p ps=5.58u w=4.4u l=0.6u
X1 vdd.t131 sg13g2_RCClampInverter_0.out.t32 iovss iovss sg13_hv_nmos ad=2.596p pd=5.58u as=1.408p ps=5.04u w=4.4u l=0.6u
X2 vdd.t119 sg13g2_RCClampInverter_0.out.t33 iovss iovss sg13_hv_nmos ad=2.596p pd=5.58u as=1.408p ps=5.04u w=4.4u l=0.6u
X3 vdd.t42 sg13g2_RCClampInverter_0.in.t1 sg13g2_RCClampInverter_0.out.t16 vdd.t0 sg13_hv_pmos ad=1.33p pd=7.38u as=1.33p ps=7.38u w=7u l=0.5u
X4 sg13g2_RCClampInverter_0.out.t5 sg13g2_RCClampInverter_0.in.t2 iovss iovss sg13_hv_nmos ad=1.71p pd=9.38u as=1.71p ps=9.38u w=9u l=0.5u
X5 iovss sg13g2_RCClampInverter_0.out.t34 vdd.t89 iovss sg13_hv_nmos ad=1.408p pd=5.04u as=2.596p ps=5.58u w=4.4u l=0.6u
X6 iovss sg13g2_RCClampInverter_0.out.t35 vdd.t125 iovss sg13_hv_nmos ad=1.408p pd=5.04u as=2.596p ps=5.58u w=4.4u l=0.6u
X7 iovss sg13g2_RCClampInverter_0.out.t36 vdd.t88 iovss sg13_hv_nmos ad=1.408p pd=5.04u as=2.596p ps=5.58u w=4.4u l=0.6u
X8 vdd.t26 sg13g2_RCClampInverter_0.in.t1 sg13g2_RCClampInverter_0.out.t28 vdd.t0 sg13_hv_pmos ad=1.33p pd=7.38u as=1.33p ps=7.38u w=7u l=0.5u
X9 sg13g2_RCClampInverter_0.out.t4 sg13g2_RCClampInverter_0.in.t2 iovss iovss sg13_hv_nmos ad=1.71p pd=9.38u as=1.71p ps=9.38u w=9u l=0.5u
X10 iovss sg13g2_RCClampInverter_0.out.t37 vdd.t86 iovss sg13_hv_nmos ad=1.408p pd=5.04u as=2.596p ps=5.58u w=4.4u l=0.6u
X11 iovss sg13g2_RCClampInverter_0.out.t38 vdd.t84 iovss sg13_hv_nmos ad=1.408p pd=5.04u as=2.596p ps=5.58u w=4.4u l=0.6u
X12 iovss sg13g2_RCClampInverter_0.out.t39 vdd.t138 iovss sg13_hv_nmos ad=1.408p pd=5.04u as=2.596p ps=5.58u w=4.4u l=0.6u
X13 vdd.t138 sg13g2_RCClampInverter_0.out.t40 iovss iovss sg13_hv_nmos ad=2.596p pd=5.58u as=1.408p ps=5.04u w=4.4u l=0.6u
X14 iovss sg13g2_RCClampInverter_0.out.t41 vdd.t137 iovss sg13_hv_nmos ad=1.408p pd=5.04u as=2.596p ps=5.58u w=4.4u l=0.6u
X15 vdd.t113 sg13g2_RCClampInverter_0.out.t42 iovss iovss sg13_hv_nmos ad=2.596p pd=5.58u as=1.408p ps=5.04u w=4.4u l=0.6u
X16 iovss sg13g2_RCClampInverter_0.out.t43 vdd.t80 iovss sg13_hv_nmos ad=1.408p pd=5.04u as=2.596p ps=5.58u w=4.4u l=0.6u
X17 vdd.t20 sg13g2_RCClampInverter_0.in.t1 sg13g2_RCClampInverter_0.out.t20 vdd.t0 sg13_hv_pmos ad=1.33p pd=7.38u as=1.33p ps=7.38u w=7u l=0.5u
X18 vdd.t28 sg13g2_RCClampInverter_0.in.t1 sg13g2_RCClampInverter_0.out.t19 vdd.t0 sg13_hv_pmos ad=1.33p pd=7.38u as=1.33p ps=7.38u w=7u l=0.5u
X19 iovss sg13g2_RCClampInverter_0.out.t44 vdd.t120 iovss sg13_hv_nmos ad=1.408p pd=5.04u as=2.596p ps=5.58u w=4.4u l=0.6u
X20 vdd.t111 sg13g2_RCClampInverter_0.out.t45 iovss iovss sg13_hv_nmos ad=2.596p pd=5.58u as=1.408p ps=5.04u w=4.4u l=0.6u
X21 iovss sg13g2_RCClampInverter_0.out.t46 vdd.t77 iovss sg13_hv_nmos ad=1.408p pd=5.04u as=2.596p ps=5.58u w=4.4u l=0.6u
X22 iovss sg13g2_RCClampInverter_0.out.t47 vdd.t135 iovss sg13_hv_nmos ad=1.408p pd=5.04u as=2.596p ps=5.58u w=4.4u l=0.6u
X23 iovss sg13g2_RCClampInverter_0.out.t48 vdd.t74 iovss sg13_hv_nmos ad=1.408p pd=5.04u as=2.596p ps=5.58u w=4.4u l=0.6u
X24 vdd.t109 sg13g2_RCClampInverter_0.out.t49 iovss iovss sg13_hv_nmos ad=2.596p pd=5.58u as=1.408p ps=5.04u w=4.4u l=0.6u
X25 sg13g2_RCClampInverter_0.out.t23 sg13g2_RCClampInverter_0.in.t1 vdd.t19 vdd.t0 sg13_hv_pmos ad=1.33p pd=7.38u as=1.33p ps=7.38u w=7u l=0.5u
X26 a_11365_11542# a_11695_7456# iovss rppd l=20u w=1u
X27 vdd.t24 sg13g2_RCClampInverter_0.in.t1 sg13g2_RCClampInverter_0.out.t29 vdd.t0 sg13_hv_pmos ad=1.33p pd=7.38u as=1.33p ps=7.38u w=7u l=0.5u
X28 iovss sg13g2_RCClampInverter_0.out.t50 vdd.t70 iovss sg13_hv_nmos ad=1.408p pd=5.04u as=2.596p ps=5.58u w=4.4u l=0.6u
X29 sg13g2_RCClampInverter_0.out.t15 sg13g2_RCClampInverter_0.in.t1 vdd.t2 vdd.t0 sg13_hv_pmos ad=1.33p pd=7.38u as=1.33p ps=7.38u w=7u l=0.5u
X30 a_8725_11542# a_9055_7456# iovss rppd l=20u w=1u
X31 vdd.t130 sg13g2_RCClampInverter_0.out.t51 iovss iovss sg13_hv_nmos ad=2.596p pd=5.58u as=1.408p ps=5.04u w=4.4u l=0.6u
X32 vdd.t129 sg13g2_RCClampInverter_0.out.t52 iovss iovss sg13_hv_nmos ad=2.596p pd=5.58u as=1.408p ps=5.04u w=4.4u l=0.6u
X33 iovss sg13g2_RCClampInverter_0.out.t53 vdd.t105 iovss sg13_hv_nmos ad=1.408p pd=5.04u as=2.596p ps=5.58u w=4.4u l=0.6u
X34 a_10045_11542# a_9715_7456# iovss rppd l=20u w=1u
X35 vdd.t104 sg13g2_RCClampInverter_0.out.t54 iovss iovss sg13_hv_nmos ad=2.596p pd=5.58u as=1.408p ps=5.04u w=4.4u l=0.6u
X36 iovss sg13g2_RCClampInverter_0.out.t55 vdd.t133 iovss sg13_hv_nmos ad=1.408p pd=5.04u as=2.596p ps=5.58u w=4.4u l=0.6u
X37 iovss sg13g2_RCClampInverter_0.out.t56 vdd.t103 iovss sg13_hv_nmos ad=1.408p pd=5.04u as=2.596p ps=5.58u w=4.4u l=0.6u
X38 vdd.t101 sg13g2_RCClampInverter_0.out.t57 iovss iovss sg13_hv_nmos ad=2.596p pd=5.58u as=1.408p ps=5.04u w=4.4u l=0.6u
X39 vdd.t51 sg13g2_RCClampInverter_0.out.t58 iovss iovss sg13_hv_nmos ad=2.596p pd=5.58u as=1.408p ps=5.04u w=4.4u l=0.6u
X40 iovss sg13g2_RCClampInverter_0.out.t59 vdd.t65 iovss sg13_hv_nmos ad=1.408p pd=5.04u as=2.596p ps=5.58u w=4.4u l=0.6u
X41 vdd.t33 sg13g2_RCClampInverter_0.in.t1 sg13g2_RCClampInverter_0.out.t24 vdd.t0 sg13_hv_pmos ad=1.33p pd=7.38u as=1.33p ps=7.38u w=7u l=0.5u
X42 iovss sg13g2_RCClampInverter_0.out.t60 vdd.t63 iovss sg13_hv_nmos ad=1.408p pd=5.04u as=2.596p ps=5.58u w=4.4u l=0.6u
X43 sg13g2_RCClampInverter_0.out.t21 sg13g2_RCClampInverter_0.in.t1 vdd.t42 vdd.t0 sg13_hv_pmos ad=1.33p pd=7.38u as=1.33p ps=7.38u w=7u l=0.5u
X44 iovss sg13g2_RCClampInverter_0.in.t2 iovss iovss sg13_hv_nmos ad=1.71p pd=9.38u as=2.24759n ps=2.5228m w=9u l=9.5u
X45 iovss sg13g2_RCClampInverter_0.out.t61 vdd.t60 iovss sg13_hv_nmos ad=1.408p pd=5.04u as=2.596p ps=5.58u w=4.4u l=0.6u
X46 iovss sg13g2_RCClampInverter_0.in.t2 iovss iovss sg13_hv_nmos ad=1.71p pd=9.38u as=0 ps=0 w=9u l=9.5u
X47 iovss sg13g2_RCClampInverter_0.out.t62 vdd.t96 iovss sg13_hv_nmos ad=1.408p pd=5.04u as=2.596p ps=5.58u w=4.4u l=0.6u
X48 a_4105_11542# a_4435_7456# iovss rppd l=20u w=1u
X49 a_7405_11542# a_7735_7456# iovss rppd l=20u w=1u
X50 vdd.t124 sg13g2_RCClampInverter_0.out.t63 iovss iovss sg13_hv_nmos ad=2.596p pd=5.58u as=1.408p ps=5.04u w=4.4u l=0.6u
X51 vdd.t82 sg13g2_RCClampInverter_0.out.t64 iovss iovss sg13_hv_nmos ad=2.596p pd=5.58u as=1.408p ps=5.04u w=4.4u l=0.6u
X52 iovss sg13g2_RCClampInverter_0.out.t31 vdd.t95 iovss sg13_hv_nmos ad=1.408p pd=5.04u as=2.596p ps=5.58u w=4.4u l=0.6u
X53 vdd.t137 sg13g2_RCClampInverter_0.out.t65 iovss iovss sg13_hv_nmos ad=2.596p pd=5.58u as=1.408p ps=5.04u w=4.4u l=0.6u
X54 vdd.t136 sg13g2_RCClampInverter_0.out.t66 iovss iovss sg13_hv_nmos ad=3.256p pd=10.28u as=1.408p ps=5.04u w=4.4u l=0.6u
X55 iovss sg13g2_RCClampInverter_0.out.t34 vdd.t52 iovss sg13_hv_nmos ad=1.408p pd=5.04u as=2.596p ps=5.58u w=4.4u l=0.6u
X56 vdd.t123 sg13g2_RCClampInverter_0.out.t67 iovss iovss sg13_hv_nmos ad=2.596p pd=5.58u as=1.408p ps=5.04u w=4.4u l=0.6u
X57 vdd.t122 sg13g2_RCClampInverter_0.out.t68 iovss iovss sg13_hv_nmos ad=2.596p pd=5.58u as=1.408p ps=5.04u w=4.4u l=0.6u
X58 sg13g2_RCClampInverter_0.out.t30 sg13g2_RCClampInverter_0.in.t1 vdd.t8 vdd.t0 sg13_hv_pmos ad=1.33p pd=7.38u as=1.33p ps=7.38u w=7u l=0.5u
X59 sg13g2_RCClampInverter_0.out.t25 sg13g2_RCClampInverter_0.in.t1 vdd.t15 vdd.t0 sg13_hv_pmos ad=1.33p pd=7.38u as=1.33p ps=7.38u w=7u l=0.5u
X60 iovss sg13g2_RCClampInverter_0.out.t69 vdd.t92 iovss sg13_hv_nmos ad=1.408p pd=5.04u as=2.596p ps=5.58u w=4.4u l=0.6u
X61 iovss sg13g2_RCClampInverter_0.in.t2 sg13g2_RCClampInverter_0.out.t3 iovss sg13_hv_nmos ad=1.71p pd=9.38u as=1.71p ps=9.38u w=9u l=0.5u
X62 iovss sg13g2_RCClampInverter_0.out.t70 vdd.t64 iovss sg13_hv_nmos ad=1.408p pd=5.04u as=2.596p ps=5.58u w=4.4u l=0.6u
X63 iovss sg13g2_RCClampInverter_0.out.t71 vdd.t102 iovss sg13_hv_nmos ad=1.408p pd=5.04u as=2.596p ps=5.58u w=4.4u l=0.6u
X64 vdd.t135 sg13g2_RCClampInverter_0.out.t72 iovss iovss sg13_hv_nmos ad=2.596p pd=5.58u as=1.408p ps=5.04u w=4.4u l=0.6u
X65 sg13g2_RCClampInverter_0.out.t12 sg13g2_RCClampInverter_0.in.t1 vdd.t14 vdd.t0 sg13_hv_pmos ad=1.33p pd=7.38u as=1.33p ps=7.38u w=7u l=0.5u
X66 iovss sg13g2_RCClampInverter_0.in.t2 sg13g2_RCClampInverter_0.out.t2 iovss sg13_hv_nmos ad=1.71p pd=9.38u as=1.71p ps=9.38u w=9u l=0.5u
X67 sg13g2_RCClampInverter_0.out.t16 sg13g2_RCClampInverter_0.in.t1 vdd.t13 vdd.t0 sg13_hv_pmos ad=1.33p pd=7.38u as=1.33p ps=7.38u w=7u l=0.5u
X68 iovss sg13g2_RCClampInverter_0.in.t2 sg13g2_RCClampInverter_0.out.t1 iovss sg13_hv_nmos ad=1.71p pd=9.38u as=1.71p ps=9.38u w=9u l=0.5u
X69 iovss sg13g2_RCClampInverter_0.in.t2 iovss iovss sg13_hv_nmos ad=1.71p pd=9.38u as=0 ps=0 w=9u l=9.5u
X70 iovss sg13g2_RCClampInverter_0.out.t73 vdd.t134 iovss sg13_hv_nmos ad=1.408p pd=5.04u as=2.596p ps=5.58u w=4.4u l=0.6u
X71 vdd.t118 sg13g2_RCClampInverter_0.out.t74 iovss iovss sg13_hv_nmos ad=2.596p pd=5.58u as=1.408p ps=5.04u w=4.4u l=0.6u
X72 vdd.t116 sg13g2_RCClampInverter_0.out.t75 iovss iovss sg13_hv_nmos ad=2.596p pd=5.58u as=1.408p ps=5.04u w=4.4u l=0.6u
X73 sg13g2_RCClampInverter_0.out.t14 sg13g2_RCClampInverter_0.in.t1 vdd.t12 vdd.t0 sg13_hv_pmos ad=1.33p pd=7.38u as=1.33p ps=7.38u w=7u l=0.5u
X74 iovss sg13g2_RCClampInverter_0.in.t2 sg13g2_RCClampInverter_0.out.t0 iovss sg13_hv_nmos ad=1.71p pd=9.38u as=1.71p ps=9.38u w=9u l=0.5u
X75 iovss sg13g2_RCClampInverter_0.in.t2 iovss iovss sg13_hv_nmos ad=1.71p pd=9.38u as=0 ps=0 w=9u l=9.5u
X76 vdd.t134 sg13g2_RCClampInverter_0.out.t76 iovss iovss sg13_hv_nmos ad=2.596p pd=5.58u as=2.068p ps=9.74u w=4.4u l=0.6u
X77 sg13g2_RCClampInverter_0.out.t7 sg13g2_RCClampInverter_0.in.t1 vdd.t11 vdd.t0 sg13_hv_pmos ad=1.33p pd=7.38u as=1.33p ps=7.38u w=7u l=0.5u
X78 iovss sg13g2_RCClampInverter_0.in.t2 iovss iovss sg13_hv_nmos ad=1.71p pd=9.38u as=0 ps=0 w=9u l=9.5u
X79 vdd.t115 sg13g2_RCClampInverter_0.out.t77 iovss iovss sg13_hv_nmos ad=2.596p pd=5.58u as=1.408p ps=5.04u w=4.4u l=0.6u
X80 iovss sg13g2_RCClampInverter_0.out.t78 vdd.t83 iovss sg13_hv_nmos ad=1.408p pd=5.04u as=2.596p ps=5.58u w=4.4u l=0.6u
X81 a_4765_11542# a_5095_7456# iovss rppd l=20u w=1u
X82 a_8065_11542# a_8395_7456# iovss rppd l=20u w=1u
X83 vdd.t87 sg13g2_RCClampInverter_0.out.t45 iovss iovss sg13_hv_nmos ad=2.596p pd=5.58u as=1.408p ps=5.04u w=4.4u l=0.6u
X84 vdd.t69 sg13g2_RCClampInverter_0.out.t79 iovss iovss sg13_hv_nmos ad=2.596p pd=5.58u as=1.408p ps=5.04u w=4.4u l=0.6u
X85 vdd.t114 sg13g2_RCClampInverter_0.out.t80 iovss iovss sg13_hv_nmos ad=2.596p pd=5.58u as=1.408p ps=5.04u w=4.4u l=0.6u
X86 iovss sg13g2_RCClampInverter_0.in.t2 iovss iovss sg13_hv_nmos ad=1.71p pd=9.38u as=0 ps=0 w=9u l=9.5u
X87 vdd.t66 sg13g2_RCClampInverter_0.out.t81 iovss iovss sg13_hv_nmos ad=2.596p pd=5.58u as=1.408p ps=5.04u w=4.4u l=0.6u
X88 sg13g2_RCClampInverter_0.out.t11 sg13g2_RCClampInverter_0.in.t1 vdd.t22 vdd.t0 sg13_hv_pmos ad=1.33p pd=7.38u as=1.33p ps=7.38u w=7u l=0.5u
X89 vdd.t133 sg13g2_RCClampInverter_0.out.t82 iovss iovss sg13_hv_nmos ad=2.596p pd=5.58u as=1.408p ps=5.04u w=4.4u l=0.6u
X90 sg13g2_RCClampInverter_0.out.t27 sg13g2_RCClampInverter_0.in.t1 vdd.t17 vdd.t0 sg13_hv_pmos ad=1.33p pd=7.38u as=1.33p ps=7.38u w=7u l=0.5u
X91 iovss sg13g2_RCClampInverter_0.out.t83 vdd.t132 iovss sg13_hv_nmos ad=1.408p pd=5.04u as=2.596p ps=5.58u w=4.4u l=0.6u
X92 sg13g2_RCClampInverter_0.out.t20 sg13g2_RCClampInverter_0.in.t1 vdd.t33 vdd.t0 sg13_hv_pmos ad=1.33p pd=7.38u as=1.33p ps=7.38u w=7u l=0.5u
X93 iovss sg13g2_RCClampInverter_0.in.t2 sg13g2_RCClampInverter_0.out.t5 iovss sg13_hv_nmos ad=1.71p pd=9.38u as=1.71p ps=9.38u w=9u l=0.5u
X94 vdd.t132 sg13g2_RCClampInverter_0.out.t84 iovss iovss sg13_hv_nmos ad=2.596p pd=5.58u as=1.408p ps=5.04u w=4.4u l=0.6u
X95 iovss sg13g2_RCClampInverter_0.out.t85 vdd.t131 iovss sg13_hv_nmos ad=1.408p pd=5.04u as=2.596p ps=5.58u w=4.4u l=0.6u
X96 vdd.t112 sg13g2_RCClampInverter_0.out.t86 iovss iovss sg13_hv_nmos ad=2.596p pd=5.58u as=1.408p ps=5.04u w=4.4u l=0.6u
X97 sg13g2_RCClampInverter_0.out.t9 sg13g2_RCClampInverter_0.in.t1 vdd.t16 vdd.t0 sg13_hv_pmos ad=1.33p pd=7.38u as=1.33p ps=7.38u w=7u l=0.5u
X98 sg13g2_RCClampInverter_0.out.t18 sg13g2_RCClampInverter_0.in.t1 vdd.t7 vdd.t0 sg13_hv_pmos ad=1.33p pd=7.38u as=1.33p ps=7.38u w=7u l=0.5u
X99 iovss sg13g2_RCClampInverter_0.in.t2 sg13g2_RCClampInverter_0.out.t4 iovss sg13_hv_nmos ad=1.71p pd=9.38u as=1.71p ps=9.38u w=9u l=0.5u
X100 vdd.t110 sg13g2_RCClampInverter_0.out.t52 iovss iovss sg13_hv_nmos ad=2.596p pd=5.58u as=1.408p ps=5.04u w=4.4u l=0.6u
X101 vdd.t61 sg13g2_RCClampInverter_0.out.t87 iovss iovss sg13_hv_nmos ad=2.596p pd=5.58u as=1.408p ps=5.04u w=4.4u l=0.6u
X102 vdd.t76 sg13g2_RCClampInverter_0.out.t54 iovss iovss sg13_hv_nmos ad=2.596p pd=5.58u as=1.408p ps=5.04u w=4.4u l=0.6u
X103 a_10705_11542# a_11035_7456# iovss rppd l=20u w=1u
X104 vdd.t97 sg13g2_RCClampInverter_0.out.t88 iovss iovss sg13_hv_nmos ad=2.596p pd=5.58u as=1.408p ps=5.04u w=4.4u l=0.6u
X105 sg13g2_RCClampInverter_0.out.t13 sg13g2_RCClampInverter_0.in.t1 vdd.t5 vdd.t0 sg13_hv_pmos ad=1.33p pd=7.38u as=1.33p ps=7.38u w=7u l=0.5u
X106 vdd.t108 sg13g2_RCClampInverter_0.out.t89 iovss iovss sg13_hv_nmos ad=2.596p pd=5.58u as=1.408p ps=5.04u w=4.4u l=0.6u
X107 sg13g2_RCClampInverter_0.out.t26 sg13g2_RCClampInverter_0.in.t1 vdd.t1 vdd.t0 sg13_hv_pmos ad=1.33p pd=7.38u as=1.33p ps=7.38u w=7u l=0.5u
X108 vdd.t139 a_3775_7456# iovss rppd l=20u w=1u
X109 iovss sg13g2_RCClampInverter_0.out.t90 vdd.t85 iovss sg13_hv_nmos ad=1.408p pd=5.04u as=2.596p ps=5.58u w=4.4u l=0.6u
X110 sg13g2_RCClampInverter_0.out.t17 sg13g2_RCClampInverter_0.in.t1 vdd.t28 vdd.t0 sg13_hv_pmos ad=1.33p pd=7.38u as=1.33p ps=7.38u w=7u l=0.5u
X111 iovss sg13g2_RCClampInverter_0.out.t37 vdd.t130 iovss sg13_hv_nmos ad=1.408p pd=5.04u as=2.596p ps=5.58u w=4.4u l=0.6u
X112 iovss sg13g2_RCClampInverter_0.out.t91 vdd.t129 iovss sg13_hv_nmos ad=1.408p pd=5.04u as=2.596p ps=5.58u w=4.4u l=0.6u
X113 sg13g2_RCClampInverter_0.out.t10 sg13g2_RCClampInverter_0.in.t1 vdd.t3 vdd.t0 sg13_hv_pmos ad=1.33p pd=7.38u as=1.33p ps=7.38u w=7u l=0.5u
X114 iovss sg13g2_RCClampInverter_0.out.t92 vdd.t128 iovss sg13_hv_nmos ad=1.408p pd=5.04u as=2.596p ps=5.58u w=4.4u l=0.6u
X115 sg13g2_RCClampInverter_0.out.t24 sg13g2_RCClampInverter_0.in.t1 vdd.t26 vdd.t0 sg13_hv_pmos ad=1.33p pd=7.38u as=1.33p ps=7.38u w=7u l=0.5u
X116 vdd.t128 sg13g2_RCClampInverter_0.out.t93 iovss iovss sg13_hv_nmos ad=2.596p pd=5.58u as=1.408p ps=5.04u w=4.4u l=0.6u
X117 iovss sg13g2_RCClampInverter_0.out.t94 vdd.t126 iovss sg13_hv_nmos ad=1.408p pd=5.04u as=2.596p ps=5.58u w=4.4u l=0.6u
X118 a_5425_11542# a_5095_7456# iovss rppd l=20u w=1u
X119 a_8725_11542# a_8395_7456# iovss rppd l=20u w=1u
X120 vdd.t127 sg13g2_RCClampInverter_0.out.t66 iovss iovss sg13_hv_nmos ad=3.256p pd=10.28u as=1.408p ps=5.04u w=4.4u l=0.6u
X121 vdd.t126 sg13g2_RCClampInverter_0.out.t95 iovss iovss sg13_hv_nmos ad=2.596p pd=5.58u as=1.408p ps=5.04u w=4.4u l=0.6u
X122 vdd.t98 sg13g2_RCClampInverter_0.out.t96 iovss iovss sg13_hv_nmos ad=2.596p pd=5.58u as=1.408p ps=5.04u w=4.4u l=0.6u
X123 vdd.t99 sg13g2_RCClampInverter_0.out.t67 iovss iovss sg13_hv_nmos ad=2.596p pd=5.58u as=1.408p ps=5.04u w=4.4u l=0.6u
X124 vdd.t125 sg13g2_RCClampInverter_0.out.t97 iovss iovss sg13_hv_nmos ad=2.596p pd=5.58u as=1.408p ps=5.04u w=4.4u l=0.6u
X125 iovss sg13g2_RCClampInverter_0.out.t44 vdd.t75 iovss sg13_hv_nmos ad=1.408p pd=5.04u as=2.596p ps=5.58u w=4.4u l=0.6u
X126 iovss sg13g2_RCClampInverter_0.out.t48 vdd.t124 iovss sg13_hv_nmos ad=1.408p pd=5.04u as=2.596p ps=5.58u w=4.4u l=0.6u
X127 iovss sg13g2_RCClampInverter_0.out.t98 vdd.t107 iovss sg13_hv_nmos ad=1.408p pd=5.04u as=2.596p ps=5.58u w=4.4u l=0.6u
X128 iovss sg13g2_RCClampInverter_0.out.t71 vdd.t72 iovss sg13_hv_nmos ad=1.408p pd=5.04u as=2.596p ps=5.58u w=4.4u l=0.6u
X129 vdd.t57 sg13g2_RCClampInverter_0.out.t33 iovss iovss sg13_hv_nmos ad=2.596p pd=5.58u as=1.408p ps=5.04u w=4.4u l=0.6u
X130 sg13g2_RCClampInverter_0.out.t6 sg13g2_RCClampInverter_0.in.t1 vdd.t25 vdd.t0 sg13_hv_pmos ad=1.33p pd=7.38u as=2.38p ps=14.68u w=7u l=0.5u
X131 iovss sg13g2_RCClampInverter_0.in.t2 iovss iovss sg13_hv_nmos ad=1.71p pd=9.38u as=0 ps=0 w=9u l=9.5u
X132 iovss sg13g2_RCClampInverter_0.in.t2 iovss iovss sg13_hv_nmos ad=1.71p pd=9.38u as=0 ps=0 w=9u l=9.5u
X133 iovss sg13g2_RCClampInverter_0.out.t36 vdd.t123 iovss sg13_hv_nmos ad=1.408p pd=5.04u as=2.596p ps=5.58u w=4.4u l=0.6u
X134 iovss sg13g2_RCClampInverter_0.out.t73 vdd.t121 iovss sg13_hv_nmos ad=1.408p pd=5.04u as=2.596p ps=5.58u w=4.4u l=0.6u
X135 vdd.t94 sg13g2_RCClampInverter_0.out.t74 iovss iovss sg13_hv_nmos ad=2.596p pd=5.58u as=1.408p ps=5.04u w=4.4u l=0.6u
X136 iovss sg13g2_RCClampInverter_0.out.t99 vdd.t122 iovss sg13_hv_nmos ad=1.408p pd=5.04u as=2.596p ps=5.58u w=4.4u l=0.6u
X137 vdd.t121 sg13g2_RCClampInverter_0.out.t76 iovss iovss sg13_hv_nmos ad=2.596p pd=5.58u as=2.068p ps=9.74u w=4.4u l=0.6u
X138 vdd.t93 sg13g2_RCClampInverter_0.out.t77 iovss iovss sg13_hv_nmos ad=2.596p pd=5.58u as=1.408p ps=5.04u w=4.4u l=0.6u
X139 vdd.t120 sg13g2_RCClampInverter_0.out.t79 iovss iovss sg13_hv_nmos ad=2.596p pd=5.58u as=1.408p ps=5.04u w=4.4u l=0.6u
X140 a_6085_11542# a_5755_7456# iovss rppd l=20u w=1u
X141 a_9385_11542# a_9055_7456# iovss rppd l=20u w=1u
X142 iovss sg13g2_RCClampInverter_0.out.t41 vdd.t100 iovss sg13_hv_nmos ad=1.408p pd=5.04u as=2.596p ps=5.58u w=4.4u l=0.6u
X143 iovss sg13g2_RCClampInverter_0.out.t56 vdd.t119 iovss sg13_hv_nmos ad=1.408p pd=5.04u as=2.596p ps=5.58u w=4.4u l=0.6u
X144 iovss sg13g2_RCClampInverter_0.out.t43 vdd.t118 iovss sg13_hv_nmos ad=1.408p pd=5.04u as=2.596p ps=5.58u w=4.4u l=0.6u
X145 vdd.t117 sg13g2_RCClampInverter_0.out.t42 iovss iovss sg13_hv_nmos ad=2.596p pd=5.58u as=1.408p ps=5.04u w=4.4u l=0.6u
X146 iovss sg13g2_RCClampInverter_0.out.t60 vdd.t116 iovss sg13_hv_nmos ad=1.408p pd=5.04u as=2.596p ps=5.58u w=4.4u l=0.6u
X147 a_10045_11542# a_10375_7456# iovss rppd l=20u w=1u
X148 sg13g2_RCClampInverter_0.out.t28 sg13g2_RCClampInverter_0.in.t1 vdd.t24 vdd.t0 sg13_hv_pmos ad=1.33p pd=7.38u as=1.33p ps=7.38u w=7u l=0.5u
X149 iovss sg13g2_RCClampInverter_0.out.t46 vdd.t115 iovss sg13_hv_nmos ad=1.408p pd=5.04u as=2.596p ps=5.58u w=4.4u l=0.6u
X150 iovss sg13g2_RCClampInverter_0.out.t100 vdd.t59 iovss sg13_hv_nmos ad=1.408p pd=5.04u as=2.596p ps=5.58u w=4.4u l=0.6u
X151 sg13g2_RCClampInverter_0.out.t8 sg13g2_RCClampInverter_0.in.t1 vdd.t10 vdd.t0 sg13_hv_pmos ad=1.33p pd=7.38u as=1.33p ps=7.38u w=7u l=0.5u
X152 iovss sg13g2_RCClampInverter_0.out.t101 vdd.t114 iovss sg13_hv_nmos ad=1.408p pd=5.04u as=2.596p ps=5.58u w=4.4u l=0.6u
X153 vdd.t22 sg13g2_RCClampInverter_0.in.t1 sg13g2_RCClampInverter_0.out.t10 vdd.t0 sg13_hv_pmos ad=1.33p pd=7.38u as=1.33p ps=7.38u w=7u l=0.5u
X154 sg13g2_RCClampInverter_0.out.t22 sg13g2_RCClampInverter_0.in.t1 vdd.t9 vdd.t0 sg13_hv_pmos ad=1.33p pd=7.38u as=1.33p ps=7.38u w=7u l=0.5u
X155 vdd.t68 sg13g2_RCClampInverter_0.out.t88 iovss iovss sg13_hv_nmos ad=2.596p pd=5.58u as=1.408p ps=5.04u w=4.4u l=0.6u
X156 iovss sg13g2_RCClampInverter_0.out.t31 vdd.t113 iovss sg13_hv_nmos ad=1.408p pd=5.04u as=2.596p ps=5.58u w=4.4u l=0.6u
X157 sg13g2_RCClampInverter_0.in.t0 a_11695_7456# iovss rppd l=20u w=1u
X158 iovss sg13g2_RCClampInverter_0.out.t90 vdd.t53 iovss sg13_hv_nmos ad=1.408p pd=5.04u as=2.596p ps=5.58u w=4.4u l=0.6u
X159 iovss sg13g2_RCClampInverter_0.out.t34 vdd.t112 iovss sg13_hv_nmos ad=1.408p pd=5.04u as=2.596p ps=5.58u w=4.4u l=0.6u
X160 vdd.t79 sg13g2_RCClampInverter_0.out.t51 iovss iovss sg13_hv_nmos ad=2.596p pd=5.58u as=1.408p ps=5.04u w=4.4u l=0.6u
X161 sg13g2_RCClampInverter_0.out.t19 sg13g2_RCClampInverter_0.in.t1 vdd.t20 vdd.t0 sg13_hv_pmos ad=1.33p pd=7.38u as=1.33p ps=7.38u w=7u l=0.5u
X162 a_4765_11542# a_4435_7456# iovss rppd l=20u w=1u
X163 iovss sg13g2_RCClampInverter_0.out.t53 vdd.t111 iovss sg13_hv_nmos ad=1.408p pd=5.04u as=2.596p ps=5.58u w=4.4u l=0.6u
X164 iovss sg13g2_RCClampInverter_0.out.t91 vdd.t110 iovss sg13_hv_nmos ad=1.408p pd=5.04u as=2.596p ps=5.58u w=4.4u l=0.6u
X165 iovss sg13g2_RCClampInverter_0.out.t102 vdd.t109 iovss sg13_hv_nmos ad=1.408p pd=5.04u as=2.596p ps=5.58u w=4.4u l=0.6u
X166 vdd.t19 sg13g2_RCClampInverter_0.in.t1 sg13g2_RCClampInverter_0.out.t22 vdd.t0 sg13_hv_pmos ad=1.33p pd=7.38u as=1.33p ps=7.38u w=7u l=0.5u
X167 iovss sg13g2_RCClampInverter_0.out.t92 vdd.t106 iovss sg13_hv_nmos ad=1.408p pd=5.04u as=2.596p ps=5.58u w=4.4u l=0.6u
X168 iovss sg13g2_RCClampInverter_0.out.t103 vdd.t108 iovss sg13_hv_nmos ad=1.408p pd=5.04u as=2.596p ps=5.58u w=4.4u l=0.6u
X169 vdd.t107 sg13g2_RCClampInverter_0.out.t58 iovss iovss sg13_hv_nmos ad=2.596p pd=5.58u as=1.408p ps=5.04u w=4.4u l=0.6u
X170 sg13g2_RCClampInverter_0.out.t29 sg13g2_RCClampInverter_0.in.t1 vdd.t6 vdd.t0 sg13_hv_pmos ad=1.33p pd=7.38u as=1.33p ps=7.38u w=7u l=0.5u
X171 vdd.t106 sg13g2_RCClampInverter_0.out.t93 iovss iovss sg13_hv_nmos ad=2.596p pd=5.58u as=1.408p ps=5.04u w=4.4u l=0.6u
X172 a_9385_11542# a_9715_7456# iovss rppd l=20u w=1u
X173 iovss sg13g2_RCClampInverter_0.in.t2 iovss iovss sg13_hv_nmos ad=1.71p pd=9.38u as=0 ps=0 w=9u l=9.5u
X174 a_6085_11542# a_6415_7456# iovss rppd l=20u w=1u
X175 vdd.t105 sg13g2_RCClampInverter_0.out.t45 iovss iovss sg13_hv_nmos ad=2.596p pd=5.58u as=1.408p ps=5.04u w=4.4u l=0.6u
X176 iovss sg13g2_RCClampInverter_0.in.t2 iovss iovss sg13_hv_nmos ad=1.71p pd=9.38u as=0 ps=0 w=9u l=9.5u
X177 a_10705_11542# a_10375_7456# iovss rppd l=20u w=1u
X178 iovss sg13g2_RCClampInverter_0.out.t98 vdd.t81 iovss sg13_hv_nmos ad=1.408p pd=5.04u as=2.596p ps=5.58u w=4.4u l=0.6u
X179 iovss sg13g2_RCClampInverter_0.out.t62 vdd.t104 iovss sg13_hv_nmos ad=1.408p pd=5.04u as=2.596p ps=5.58u w=4.4u l=0.6u
X180 vdd.t103 sg13g2_RCClampInverter_0.out.t33 iovss iovss sg13_hv_nmos ad=2.596p pd=5.58u as=1.408p ps=5.04u w=4.4u l=0.6u
X181 vdd.t102 sg13g2_RCClampInverter_0.out.t64 iovss iovss sg13_hv_nmos ad=2.596p pd=5.58u as=1.408p ps=5.04u w=4.4u l=0.6u
X182 vdd.t67 sg13g2_RCClampInverter_0.out.t63 iovss iovss sg13_hv_nmos ad=2.596p pd=5.58u as=1.408p ps=5.04u w=4.4u l=0.6u
X183 iovss sg13g2_RCClampInverter_0.out.t104 vdd.t101 iovss sg13_hv_nmos ad=1.408p pd=5.04u as=2.596p ps=5.58u w=4.4u l=0.6u
X184 vdd.t100 sg13g2_RCClampInverter_0.out.t65 iovss iovss sg13_hv_nmos ad=2.596p pd=5.58u as=1.408p ps=5.04u w=4.4u l=0.6u
X185 iovss sg13g2_RCClampInverter_0.out.t36 vdd.t99 iovss sg13_hv_nmos ad=1.408p pd=5.04u as=2.596p ps=5.58u w=4.4u l=0.6u
X186 iovss sg13g2_RCClampInverter_0.out.t105 vdd.t98 iovss sg13_hv_nmos ad=1.408p pd=5.04u as=2.596p ps=5.58u w=4.4u l=0.6u
X187 vdd.t17 sg13g2_RCClampInverter_0.in.t1 sg13g2_RCClampInverter_0.out.t21 vdd.t0 sg13_hv_pmos ad=1.33p pd=7.38u as=1.33p ps=7.38u w=7u l=0.5u
X188 iovss sg13g2_RCClampInverter_0.out.t70 vdd.t97 iovss sg13_hv_nmos ad=1.408p pd=5.04u as=2.596p ps=5.58u w=4.4u l=0.6u
X189 vdd.t58 sg13g2_RCClampInverter_0.out.t52 iovss iovss sg13_hv_nmos ad=2.596p pd=5.58u as=1.408p ps=5.04u w=4.4u l=0.6u
X190 vdd.t16 sg13g2_RCClampInverter_0.in.t1 sg13g2_RCClampInverter_0.out.t8 vdd.t0 sg13_hv_pmos ad=1.33p pd=7.38u as=1.33p ps=7.38u w=7u l=0.5u
X191 vdd.t96 sg13g2_RCClampInverter_0.out.t54 iovss iovss sg13_hv_nmos ad=2.596p pd=5.58u as=1.408p ps=5.04u w=4.4u l=0.6u
X192 iovss sg13g2_RCClampInverter_0.out.t41 vdd.t71 iovss sg13_hv_nmos ad=1.408p pd=5.04u as=2.596p ps=5.58u w=4.4u l=0.6u
X193 a_6745_11542# a_7075_7456# iovss rppd l=20u w=1u
X194 vdd.t95 sg13g2_RCClampInverter_0.out.t42 iovss iovss sg13_hv_nmos ad=2.596p pd=5.58u as=1.408p ps=5.04u w=4.4u l=0.6u
X195 iovss sg13g2_RCClampInverter_0.out.t43 vdd.t94 iovss sg13_hv_nmos ad=1.408p pd=5.04u as=2.596p ps=5.58u w=4.4u l=0.6u
X196 vdd.t56 sg13g2_RCClampInverter_0.out.t75 iovss iovss sg13_hv_nmos ad=2.596p pd=5.58u as=1.408p ps=5.04u w=4.4u l=0.6u
X197 vdd.t15 sg13g2_RCClampInverter_0.in.t1 sg13g2_RCClampInverter_0.out.t30 vdd.t0 sg13_hv_pmos ad=1.33p pd=7.38u as=1.33p ps=7.38u w=7u l=0.5u
X198 a_11365_11542# a_11035_7456# iovss rppd l=20u w=1u
X199 iovss sg13g2_RCClampInverter_0.out.t46 vdd.t93 iovss sg13_hv_nmos ad=1.408p pd=5.04u as=2.596p ps=5.58u w=4.4u l=0.6u
X200 vdd.t92 sg13g2_RCClampInverter_0.out.t106 iovss iovss sg13_hv_nmos ad=2.596p pd=5.58u as=1.408p ps=5.04u w=4.4u l=0.6u
X201 sg13g2_RCClampInverter_0.out.t3 sg13g2_RCClampInverter_0.in.t2 iovss iovss sg13_hv_nmos ad=1.71p pd=9.38u as=1.71p ps=9.38u w=9u l=0.5u
X202 iovss sg13g2_RCClampInverter_0.in.t2 iovss iovss sg13_hv_nmos ad=1.71p pd=9.38u as=0 ps=0 w=9u l=9.5u
X203 vdd.t14 sg13g2_RCClampInverter_0.in.t1 sg13g2_RCClampInverter_0.out.t18 vdd.t0 sg13_hv_pmos ad=1.33p pd=7.38u as=1.33p ps=7.38u w=7u l=0.5u
X204 sg13g2_RCClampInverter_0.out.t2 sg13g2_RCClampInverter_0.in.t2 iovss iovss sg13_hv_nmos ad=1.71p pd=9.38u as=1.71p ps=9.38u w=9u l=0.5u
X205 iovss sg13g2_RCClampInverter_0.in.t2 iovss iovss sg13_hv_nmos ad=1.71p pd=9.38u as=0 ps=0 w=9u l=9.5u
X206 vdd.t13 sg13g2_RCClampInverter_0.in.t1 sg13g2_RCClampInverter_0.out.t15 vdd.t0 sg13_hv_pmos ad=1.33p pd=7.38u as=1.33p ps=7.38u w=7u l=0.5u
X207 sg13g2_RCClampInverter_0.out.t1 sg13g2_RCClampInverter_0.in.t2 iovss iovss sg13_hv_nmos ad=1.71p pd=9.38u as=3.06p ps=18.68u w=9u l=0.5u
X208 iovss sg13g2_RCClampInverter_0.out.t83 vdd.t91 iovss sg13_hv_nmos ad=1.408p pd=5.04u as=2.596p ps=5.58u w=4.4u l=0.6u
X209 sg13g2_RCClampInverter_0.out.t0 sg13g2_RCClampInverter_0.in.t2 iovss iovss sg13_hv_nmos ad=1.71p pd=9.38u as=3.06p ps=18.68u w=9u l=0.5u
X210 vdd.t91 sg13g2_RCClampInverter_0.out.t84 iovss iovss sg13_hv_nmos ad=2.596p pd=5.58u as=1.408p ps=5.04u w=4.4u l=0.6u
X211 vdd.t90 sg13g2_RCClampInverter_0.out.t66 iovss iovss sg13_hv_nmos ad=3.256p pd=10.28u as=1.408p ps=5.04u w=4.4u l=0.6u
X212 vdd.t12 sg13g2_RCClampInverter_0.in.t1 sg13g2_RCClampInverter_0.out.t13 vdd.t0 sg13_hv_pmos ad=1.33p pd=7.38u as=1.33p ps=7.38u w=7u l=0.5u
X213 vdd.t89 sg13g2_RCClampInverter_0.out.t86 iovss iovss sg13_hv_nmos ad=2.596p pd=5.58u as=1.408p ps=5.04u w=4.4u l=0.6u
X214 vdd.t88 sg13g2_RCClampInverter_0.out.t67 iovss iovss sg13_hv_nmos ad=2.596p pd=5.58u as=1.408p ps=5.04u w=4.4u l=0.6u
X215 vdd.t11 sg13g2_RCClampInverter_0.in.t1 sg13g2_RCClampInverter_0.out.t26 vdd.t0 sg13_hv_pmos ad=1.33p pd=7.38u as=1.33p ps=7.38u w=7u l=0.5u
X216 vdd.t10 sg13g2_RCClampInverter_0.in.t1 sg13g2_RCClampInverter_0.out.t7 vdd.t0 sg13_hv_pmos ad=1.33p pd=7.38u as=1.33p ps=7.38u w=7u l=0.5u
X217 iovss sg13g2_RCClampInverter_0.out.t53 vdd.t87 iovss sg13_hv_nmos ad=1.408p pd=5.04u as=2.596p ps=5.58u w=4.4u l=0.6u
X218 vdd.t86 sg13g2_RCClampInverter_0.out.t51 iovss iovss sg13_hv_nmos ad=2.596p pd=5.58u as=1.408p ps=5.04u w=4.4u l=0.6u
X219 vdd.t85 sg13g2_RCClampInverter_0.out.t87 iovss iovss sg13_hv_nmos ad=2.596p pd=5.58u as=1.408p ps=5.04u w=4.4u l=0.6u
X220 vdd.t84 sg13g2_RCClampInverter_0.out.t107 iovss iovss sg13_hv_nmos ad=2.596p pd=5.58u as=1.408p ps=5.04u w=4.4u l=0.6u
X221 a_5425_11542# a_5755_7456# iovss rppd l=20u w=1u
X222 vdd.t83 sg13g2_RCClampInverter_0.out.t108 iovss iovss sg13_hv_nmos ad=2.596p pd=5.58u as=1.408p ps=5.04u w=4.4u l=0.6u
X223 iovss sg13g2_RCClampInverter_0.out.t71 vdd.t82 iovss sg13_hv_nmos ad=1.408p pd=5.04u as=2.596p ps=5.58u w=4.4u l=0.6u
X224 vdd.t9 sg13g2_RCClampInverter_0.in.t1 sg13g2_RCClampInverter_0.out.t11 vdd.t0 sg13_hv_pmos ad=1.33p pd=7.38u as=1.33p ps=7.38u w=7u l=0.5u
X225 vdd.t81 sg13g2_RCClampInverter_0.out.t58 iovss iovss sg13_hv_nmos ad=2.596p pd=5.58u as=1.408p ps=5.04u w=4.4u l=0.6u
X226 vdd.t8 sg13g2_RCClampInverter_0.in.t1 sg13g2_RCClampInverter_0.out.t27 vdd.t0 sg13_hv_pmos ad=1.33p pd=7.38u as=1.33p ps=7.38u w=7u l=0.5u
X227 iovss sg13g2_RCClampInverter_0.in.t2 iovss iovss sg13_hv_nmos ad=1.71p pd=9.38u as=0 ps=0 w=9u l=9.5u
X228 vdd.t80 sg13g2_RCClampInverter_0.out.t74 iovss iovss sg13_hv_nmos ad=2.596p pd=5.58u as=1.408p ps=5.04u w=4.4u l=0.6u
X229 iovss sg13g2_RCClampInverter_0.out.t73 vdd.t78 iovss sg13_hv_nmos ad=1.408p pd=5.04u as=2.596p ps=5.58u w=4.4u l=0.6u
X230 iovss sg13g2_RCClampInverter_0.out.t37 vdd.t79 iovss sg13_hv_nmos ad=1.408p pd=5.04u as=2.596p ps=5.58u w=4.4u l=0.6u
X231 iovss sg13g2_RCClampInverter_0.in.t2 iovss iovss sg13_hv_nmos ad=1.71p pd=9.38u as=0 ps=0 w=9u l=9.5u
X232 a_4105_11542# a_3775_7456# iovss rppd l=20u w=1u
X233 a_7405_11542# a_7075_7456# iovss rppd l=20u w=1u
X234 vdd.t78 sg13g2_RCClampInverter_0.out.t76 iovss iovss sg13_hv_nmos ad=2.596p pd=5.58u as=2.068p ps=9.74u w=4.4u l=0.6u
X235 vdd.t7 sg13g2_RCClampInverter_0.in.t1 sg13g2_RCClampInverter_0.out.t9 vdd.t0 sg13_hv_pmos ad=1.33p pd=7.38u as=1.33p ps=7.38u w=7u l=0.5u
X236 vdd.t77 sg13g2_RCClampInverter_0.out.t77 iovss iovss sg13_hv_nmos ad=2.596p pd=5.58u as=1.408p ps=5.04u w=4.4u l=0.6u
X237 iovss sg13g2_RCClampInverter_0.out.t62 vdd.t76 iovss sg13_hv_nmos ad=1.408p pd=5.04u as=2.596p ps=5.58u w=4.4u l=0.6u
X238 vdd.t75 sg13g2_RCClampInverter_0.out.t79 iovss iovss sg13_hv_nmos ad=2.596p pd=5.58u as=1.408p ps=5.04u w=4.4u l=0.6u
X239 vdd.t6 sg13g2_RCClampInverter_0.in.t1 sg13g2_RCClampInverter_0.out.t14 vdd.t0 sg13_hv_pmos ad=1.33p pd=7.38u as=1.33p ps=7.38u w=7u l=0.5u
X240 vdd.t74 sg13g2_RCClampInverter_0.out.t63 iovss iovss sg13_hv_nmos ad=2.596p pd=5.58u as=1.408p ps=5.04u w=4.4u l=0.6u
X241 vdd.t73 sg13g2_RCClampInverter_0.out.t109 iovss iovss sg13_hv_nmos ad=3.256p pd=10.28u as=1.408p ps=5.04u w=4.4u l=0.6u
X242 vdd.t5 sg13g2_RCClampInverter_0.in.t1 sg13g2_RCClampInverter_0.out.t23 vdd.t0 sg13_hv_pmos ad=1.33p pd=7.38u as=1.33p ps=7.38u w=7u l=0.5u
X243 vdd.t72 sg13g2_RCClampInverter_0.out.t64 iovss iovss sg13_hv_nmos ad=2.596p pd=5.58u as=1.408p ps=5.04u w=4.4u l=0.6u
X244 vdd.t71 sg13g2_RCClampInverter_0.out.t65 iovss iovss sg13_hv_nmos ad=2.596p pd=5.58u as=1.408p ps=5.04u w=4.4u l=0.6u
X245 vdd.t70 sg13g2_RCClampInverter_0.out.t110 iovss iovss sg13_hv_nmos ad=2.596p pd=5.58u as=1.408p ps=5.04u w=4.4u l=0.6u
X246 vdd.t4 sg13g2_RCClampInverter_0.in.t1 sg13g2_RCClampInverter_0.out.t17 vdd.t0 sg13_hv_pmos ad=2.38p pd=14.68u as=1.33p ps=7.38u w=7u l=0.5u