* NGSPICE file created from OTA_final.ext - technology: ihp-sg13g2

.subckt OTA_final ibias vinn vinp vout vdda vssa
X0 vssa vssa vssa vssa sg13_lv_nmos ad=0.19p pd=1.38u as=44.7395p ps=0.39066m w=1u l=2u
X1 w_833_2071.t114 ibias.t12 vssa vssa sg13_lv_nmos ad=0.19p pd=1.38u as=0.19p ps=1.38u w=1u l=2u
X2 a_610_6649.t27 vinp.t0 w_833_2071.t125 w_833_2071.t26 sg13_lv_nmos ad=0.19p pd=1.38u as=0.19p ps=1.38u w=1u l=0.5u
X3 w_833_2071.t13 vinn.t0 vout.t9 w_833_2071.t8 sg13_lv_nmos ad=0.19p pd=1.38u as=0.19p ps=1.38u w=1u l=0.5u
X4 a_610_6649.t26 vinp.t1 w_833_2071.t21 w_833_2071.t44 sg13_lv_nmos ad=0.19p pd=1.38u as=0.19p ps=1.38u w=1u l=0.5u
X5 vdda vdda vdda vdda sg13_lv_pmos ad=0.34p pd=2.68u as=81.07089p ps=0.63235m w=1u l=1u
X6 vdda a_610_6649.t28 vout.t3 vdda sg13_lv_pmos ad=0.19p pd=1.38u as=0.19p ps=1.38u w=1u l=2u
X7 w_833_2071.t115 ibias.t13 vssa vssa sg13_lv_nmos ad=0.19p pd=1.38u as=0.19p ps=1.38u w=1u l=2u
X8 w_833_2071.t48 w_833_2071.t105 w_833_2071.t48 w_833_2071.t26 sg13_lv_nmos ad=0.19p pd=1.38u as=0 ps=0 w=1u l=0.5u
X9 w_833_2071.t37 vinn.t1 vout.t16 w_833_2071.t31 sg13_lv_nmos ad=0.19p pd=1.38u as=0.19p ps=1.38u w=1u l=0.5u
X10 vdda vdda vdda vdda sg13_lv_pmos ad=0.34p pd=2.68u as=0 ps=0 w=1u l=1u
X11 w_833_2071.t116 vinn.t2 vout.t14 w_833_2071.t39 sg13_lv_nmos ad=0.19p pd=1.38u as=0.19p ps=1.38u w=1u l=0.5u
X12 w_833_2071.t126 vinn.t3 vout.t5 w_833_2071.t20 sg13_lv_nmos ad=0.19p pd=1.38u as=0.19p ps=1.38u w=1u l=0.5u
X13 w_833_2071.t48 w_833_2071.t103 w_833_2071.t48 w_833_2071.t8 sg13_lv_nmos ad=0.19p pd=1.38u as=0 ps=0 w=1u l=0.5u
X14 w_833_2071.t48 w_833_2071.t101 w_833_2071.t48 w_833_2071.t44 sg13_lv_nmos ad=0.19p pd=1.38u as=0 ps=0 w=1u l=0.5u
X15 a_610_6649.t24 vinp.t2 w_833_2071.t9 w_833_2071.t28 sg13_lv_nmos ad=0.19p pd=1.38u as=0.19p ps=1.38u w=1u l=0.5u
X16 vdda a_610_6649.t11 a_610_6649.t5 vdda sg13_lv_pmos ad=0.19p pd=1.38u as=0.19p ps=1.38u w=1u l=2u
X17 w_833_2071.t42 w_833_2071.t99 w_833_2071.t42 w_833_2071.t31 sg13_lv_nmos ad=0.19p pd=1.38u as=0 ps=0 w=1u l=0.5u
X18 vssa vssa vssa vssa sg13_lv_nmos ad=0.36p pd=2.72u as=0 ps=0 w=1u l=1u
X19 w_833_2071.t42 w_833_2071.t97 w_833_2071.t42 w_833_2071.t20 sg13_lv_nmos ad=0.19p pd=1.38u as=0 ps=0 w=1u l=0.5u
X20 ibias.t10 ibias.t11 vssa vssa sg13_lv_nmos ad=0.19p pd=1.38u as=0.19p ps=1.38u w=1u l=2u
X21 w_833_2071.t42 w_833_2071.t95 w_833_2071.t42 w_833_2071.t28 sg13_lv_nmos ad=0.19p pd=1.38u as=0 ps=0 w=1u l=0.5u
X22 vdda vdda vdda vdda sg13_lv_pmos ad=0.19p pd=1.38u as=0 ps=0 w=1u l=2u
X23 w_833_2071.t125 vinp.t3 a_610_6649.t20 w_833_2071.t31 sg13_lv_nmos ad=0.19p pd=1.38u as=0.19p ps=1.38u w=1u l=0.5u
X24 vdda a_610_6649.t10 a_610_6649.t7 vdda sg13_lv_pmos ad=0.19p pd=1.38u as=0.19p ps=1.38u w=1u l=2u
X25 w_833_2071.t21 vinp.t4 a_610_6649.t27 w_833_2071.t20 sg13_lv_nmos ad=0.19p pd=1.38u as=0.19p ps=1.38u w=1u l=0.5u
X26 vdda vdda vdda vdda sg13_lv_pmos ad=0.19p pd=1.38u as=0 ps=0 w=1u l=2u
X27 a_610_6649.t25 vinp.t5 w_833_2071.t7 w_833_2071.t6 sg13_lv_nmos ad=0.19p pd=1.38u as=0.19p ps=1.38u w=1u l=0.5u
X28 vout.t18 vinn.t4 w_833_2071.t13 w_833_2071.t28 sg13_lv_nmos ad=0.19p pd=1.38u as=0.19p ps=1.38u w=1u l=0.5u
X29 w_833_2071.t5 vinp.t6 a_610_6649.t19 w_833_2071.t39 sg13_lv_nmos ad=0.19p pd=1.38u as=0.19p ps=1.38u w=1u l=0.5u
X30 vdda a_610_6649.t29 vout.t2 vdda sg13_lv_pmos ad=0.19p pd=1.38u as=0.19p ps=1.38u w=1u l=2u
X31 vssa vssa vssa vssa sg13_lv_nmos ad=0.19p pd=1.38u as=0 ps=0 w=1u l=2u
X32 vssa ibias.t14 w_833_2071.t115 vssa sg13_lv_nmos ad=0.19p pd=1.38u as=0.19p ps=1.38u w=1u l=2u
X33 w_833_2071.t48 w_833_2071.t93 w_833_2071.t48 w_833_2071.t31 sg13_lv_nmos ad=0.19p pd=1.38u as=0 ps=0 w=1u l=0.5u
X34 vssa vssa vssa vssa sg13_lv_nmos ad=0.19p pd=1.38u as=0 ps=0 w=1u l=2u
X35 vdda vdda vdda vdda sg13_lv_pmos ad=0.19p pd=1.38u as=0 ps=0 w=1u l=2u
X36 vdda a_610_6649.t30 vout.t1 vdda sg13_lv_pmos ad=0.19p pd=1.38u as=0.19p ps=1.38u w=1u l=2u
X37 w_833_2071.t48 w_833_2071.t91 w_833_2071.t48 w_833_2071.t20 sg13_lv_nmos ad=0.19p pd=1.38u as=0 ps=0 w=1u l=0.5u
X38 vssa vssa vssa vssa sg13_lv_nmos ad=0.19p pd=1.38u as=0 ps=0 w=1u l=1u
X39 vssa ibias.t9 ibias.t10 vssa sg13_lv_nmos ad=0.19p pd=1.38u as=0.19p ps=1.38u w=1u l=2u
X40 w_833_2071.t48 w_833_2071.t89 w_833_2071.t48 w_833_2071.t28 sg13_lv_nmos ad=0.19p pd=1.38u as=0 ps=0 w=1u l=0.5u
X41 vssa vssa vssa vssa sg13_lv_nmos ad=0.19p pd=1.38u as=0 ps=0 w=1u l=1u
X42 vdda a_610_6649.t9 a_610_6649.t1 vdda sg13_lv_pmos ad=0.19p pd=1.38u as=0.19p ps=1.38u w=1u l=2u
X43 vdda vdda vdda vdda sg13_lv_pmos ad=0.34p pd=2.68u as=0 ps=0 w=1u l=1u
X44 vssa vssa vssa vssa sg13_lv_nmos ad=0.19p pd=1.38u as=0 ps=0 w=1u l=2u
X45 w_833_2071.t112 ibias.t15 vssa vssa sg13_lv_nmos ad=0.19p pd=1.38u as=0.19p ps=1.38u w=1u l=2u
X46 vdda vdda vdda vdda sg13_lv_pmos ad=0.19p pd=1.38u as=0 ps=0 w=1u l=2u
X47 vout.t17 vinn.t5 w_833_2071.t12 w_833_2071.t6 sg13_lv_nmos ad=0.19p pd=1.38u as=0.19p ps=1.38u w=1u l=0.5u
X48 vdda a_610_6649.t8 a_610_6649.t3 vdda sg13_lv_pmos ad=0.19p pd=1.38u as=0.19p ps=1.38u w=1u l=2u
X49 w_833_2071.t7 vinp.t7 a_610_6649.t18 w_833_2071.t11 sg13_lv_nmos ad=0.19p pd=1.38u as=0.19p ps=1.38u w=1u l=0.5u
X50 vssa vssa vssa vssa sg13_lv_nmos ad=0.19p pd=1.38u as=0 ps=0 w=1u l=2u
X51 w_833_2071.t113 ibias.t16 vssa vssa sg13_lv_nmos ad=0.19p pd=1.38u as=0.19p ps=1.38u w=1u l=2u
X52 vdda vdda vdda vdda sg13_lv_pmos ad=0.19p pd=1.38u as=0 ps=0 w=1u l=2u
X53 vssa ibias.t17 w_833_2071.t114 vssa sg13_lv_nmos ad=0.19p pd=1.38u as=0.19p ps=1.38u w=1u l=2u
X54 vdda a_610_6649.t31 vout.t0 vdda sg13_lv_pmos ad=0.19p pd=1.38u as=0.19p ps=1.38u w=1u l=2u
X55 vssa vssa vssa vssa sg13_lv_nmos ad=0.19p pd=1.38u as=0 ps=0 w=1u l=2u
X56 w_833_2071.t109 vinn.t6 vout.t4 w_833_2071.t39 sg13_lv_nmos ad=0.19p pd=1.38u as=0.19p ps=1.38u w=1u l=0.5u
X57 vssa vssa vssa vssa sg13_lv_nmos ad=0.36p pd=2.72u as=0 ps=0 w=1u l=1u
X58 vdda vdda vdda vdda sg13_lv_pmos ad=0.19p pd=1.38u as=0 ps=0 w=1u l=2u
X59 w_833_2071.t42 w_833_2071.t87 w_833_2071.t42 w_833_2071.t39 sg13_lv_nmos ad=0.19p pd=1.38u as=0 ps=0 w=1u l=0.5u
X60 vout.t12 vinn.t7 w_833_2071.t1 w_833_2071.t0 sg13_lv_nmos ad=0.19p pd=1.38u as=0.34p ps=2.68u w=1u l=0.5u
X61 vssa vssa vssa vssa sg13_lv_nmos ad=0.19p pd=1.38u as=0 ps=0 w=1u l=1u
X62 w_833_2071.t12 vinn.t8 vout.t6 w_833_2071.t11 sg13_lv_nmos ad=0.19p pd=1.38u as=0.19p ps=1.38u w=1u l=0.5u
X63 vdda vdda vdda vdda sg13_lv_pmos ad=0.19p pd=1.38u as=0 ps=0 w=1u l=2u
X64 w_833_2071.t122 vinn.t9 vout.t19 w_833_2071.t2 sg13_lv_nmos ad=0.19p pd=1.38u as=0.19p ps=1.38u w=1u l=0.5u
X65 w_833_2071.t18 vinp.t8 a_610_6649.t26 w_833_2071.t39 sg13_lv_nmos ad=0.19p pd=1.38u as=0.19p ps=1.38u w=1u l=0.5u
X66 a_610_6649.t23 vinp.t9 w_833_2071.t30 w_833_2071.t16 sg13_lv_nmos ad=0.19p pd=1.38u as=0.19p ps=1.38u w=1u l=0.5u
X67 vssa ibias.t18 w_833_2071.t113 vssa sg13_lv_nmos ad=0.19p pd=1.38u as=0.19p ps=1.38u w=1u l=2u
X68 a_610_6649.t17 vinp.t10 w_833_2071.t40 w_833_2071.t6 sg13_lv_nmos ad=0.19p pd=1.38u as=0.19p ps=1.38u w=1u l=0.5u
X69 vssa vssa vssa vssa sg13_lv_nmos ad=0.19p pd=1.38u as=0 ps=0 w=1u l=2u
X70 w_833_2071.t48 w_833_2071.t85 w_833_2071.t48 w_833_2071.t39 sg13_lv_nmos ad=0.19p pd=1.38u as=0 ps=0 w=1u l=0.5u
X71 vssa vssa vssa vssa sg13_lv_nmos ad=0.19p pd=1.38u as=0 ps=0 w=1u l=2u
X72 vdda vdda vdda vdda sg13_lv_pmos ad=0.19p pd=1.38u as=0 ps=0 w=1u l=2u
X73 ibias.t7 ibias.t8 vssa vssa sg13_lv_nmos ad=0.19p pd=1.38u as=0.19p ps=1.38u w=1u l=2u
X74 w_833_2071.t42 w_833_2071.t83 w_833_2071.t42 w_833_2071.t6 sg13_lv_nmos ad=0.19p pd=1.38u as=0 ps=0 w=1u l=0.5u
X75 a_610_6649.t7 a_610_6649.t6 vdda vdda sg13_lv_pmos ad=0.19p pd=1.38u as=0.19p ps=1.38u w=1u l=2u
X76 a_610_6649.t14 vinp.t11 w_833_2071.t131 w_833_2071.t0 sg13_lv_nmos ad=0.19p pd=1.38u as=0.34p ps=2.68u w=1u l=0.5u
X77 vdda vdda vdda vdda sg13_lv_pmos ad=0.19p pd=1.38u as=0 ps=0 w=1u l=2u
X78 vssa vssa vssa vssa sg13_lv_nmos ad=0.36p pd=2.72u as=0 ps=0 w=1u l=1u
X79 vout.t8 vinn.t10 w_833_2071.t10 w_833_2071.t6 sg13_lv_nmos ad=0.19p pd=1.38u as=0.19p ps=1.38u w=1u l=0.5u
X80 w_833_2071.t3 vinp.t12 a_610_6649.t22 w_833_2071.t2 sg13_lv_nmos ad=0.19p pd=1.38u as=0.19p ps=1.38u w=1u l=0.5u
X81 vdda vdda vdda vdda sg13_lv_pmos ad=0.19p pd=1.38u as=0 ps=0 w=1u l=1u
X82 vout.t19 vinn.t11 w_833_2071.t116 w_833_2071.t4 sg13_lv_nmos ad=0.19p pd=1.38u as=0.19p ps=1.38u w=1u l=0.5u
X83 vout.t15 vinn.t12 w_833_2071.t118 w_833_2071.t16 sg13_lv_nmos ad=0.19p pd=1.38u as=0.19p ps=1.38u w=1u l=0.5u
X84 a_610_6649.t21 vinp.t13 w_833_2071.t122 w_833_2071.t34 sg13_lv_nmos ad=0.19p pd=1.38u as=0.19p ps=1.38u w=1u l=0.5u
X85 w_833_2071.t30 vinp.t14 a_610_6649.t25 w_833_2071.t29 sg13_lv_nmos ad=0.19p pd=1.38u as=0.19p ps=1.38u w=1u l=0.5u
X86 vssa ibias.t19 w_833_2071.t112 vssa sg13_lv_nmos ad=0.19p pd=1.38u as=0.19p ps=1.38u w=1u l=2u
X87 w_833_2071.t48 w_833_2071.t81 w_833_2071.t48 w_833_2071.t6 sg13_lv_nmos ad=0.19p pd=1.38u as=0 ps=0 w=1u l=0.5u
X88 w_833_2071.t40 vinp.t15 a_610_6649.t24 w_833_2071.t11 sg13_lv_nmos ad=0.19p pd=1.38u as=0.19p ps=1.38u w=1u l=0.5u
X89 w_833_2071.t36 vinp.t16 a_610_6649.t23 w_833_2071.t24 sg13_lv_nmos ad=0.34p pd=2.68u as=0.19p ps=1.38u w=1u l=0.5u
X90 vssa ibias.t6 ibias.t7 vssa sg13_lv_nmos ad=0.19p pd=1.38u as=0.19p ps=1.38u w=1u l=2u
X91 vssa vssa vssa vssa sg13_lv_nmos ad=0.19p pd=1.38u as=0 ps=0 w=1u l=2u
X92 vdda vdda vdda vdda sg13_lv_pmos ad=0.19p pd=1.38u as=0 ps=0 w=1u l=2u
X93 a_610_6649.t5 a_610_6649.t4 vdda vdda sg13_lv_pmos ad=0.19p pd=1.38u as=0.19p ps=1.38u w=1u l=2u
X94 w_833_2071.t42 w_833_2071.t79 w_833_2071.t42 w_833_2071.t11 sg13_lv_nmos ad=0.19p pd=1.38u as=0 ps=0 w=1u l=0.5u
X95 vssa vssa vssa vssa sg13_lv_nmos ad=0.36p pd=2.72u as=0 ps=0 w=1u l=1u
X96 a_610_6649.t3 a_610_6649.t2 vdda vdda sg13_lv_pmos ad=0.19p pd=1.38u as=0.19p ps=1.38u w=1u l=2u
X97 vdda vdda vdda vdda sg13_lv_pmos ad=0.19p pd=1.38u as=0 ps=0 w=1u l=1u
X98 vout.t3 a_610_6649.t32 vdda vdda sg13_lv_pmos ad=0.19p pd=1.38u as=0.19p ps=1.38u w=1u l=2u
X99 w_833_2071.t10 vinn.t13 vout.t18 w_833_2071.t11 sg13_lv_nmos ad=0.19p pd=1.38u as=0.19p ps=1.38u w=1u l=0.5u
X100 a_610_6649.t22 vinp.t17 w_833_2071.t5 w_833_2071.t4 sg13_lv_nmos ad=0.19p pd=1.38u as=0.19p ps=1.38u w=1u l=0.5u
X101 vssa vssa vssa vssa sg13_lv_nmos ad=0.19p pd=1.38u as=0 ps=0 w=1u l=1u
X102 w_833_2071.t118 vinn.t14 vout.t17 w_833_2071.t29 sg13_lv_nmos ad=0.19p pd=1.38u as=0.19p ps=1.38u w=1u l=0.5u
X103 vout.t13 vinn.t15 w_833_2071.t3 w_833_2071.t34 sg13_lv_nmos ad=0.19p pd=1.38u as=0.19p ps=1.38u w=1u l=0.5u
X104 vdda vdda vdda vdda sg13_lv_pmos ad=0.19p pd=1.38u as=0 ps=0 w=1u l=1u
X105 vout.t11 vinn.t16 w_833_2071.t27 w_833_2071.t26 sg13_lv_nmos ad=0.19p pd=1.38u as=0.19p ps=1.38u w=1u l=0.5u
X106 vout.t16 vinn.t17 w_833_2071.t127 w_833_2071.t0 sg13_lv_nmos ad=0.19p pd=1.38u as=0.34p ps=2.68u w=1u l=0.5u
X107 w_833_2071.t110 vinn.t18 vout.t15 w_833_2071.t24 sg13_lv_nmos ad=0.34p pd=2.68u as=0.19p ps=1.38u w=1u l=0.5u
X108 vout.t14 vinn.t19 w_833_2071.t119 w_833_2071.t44 sg13_lv_nmos ad=0.19p pd=1.38u as=0.19p ps=1.38u w=1u l=0.5u
X109 w_833_2071.t15 vinp.t18 a_610_6649.t21 w_833_2071.t8 sg13_lv_nmos ad=0.19p pd=1.38u as=0.19p ps=1.38u w=1u l=0.5u
X110 w_833_2071.t48 w_833_2071.t77 w_833_2071.t48 w_833_2071.t11 sg13_lv_nmos ad=0.19p pd=1.38u as=0 ps=0 w=1u l=0.5u
X111 w_833_2071.t35 vinn.t20 vout.t10 w_833_2071.t2 sg13_lv_nmos ad=0.19p pd=1.38u as=0.19p ps=1.38u w=1u l=0.5u
X112 vssa vssa vssa vssa sg13_lv_nmos ad=0.19p pd=1.38u as=0 ps=0 w=1u l=2u
X113 vssa vssa vssa vssa sg13_lv_nmos ad=0.19p pd=1.38u as=0 ps=0 w=1u l=2u
X114 a_610_6649.t16 vinp.t19 w_833_2071.t132 w_833_2071.t16 sg13_lv_nmos ad=0.19p pd=1.38u as=0.19p ps=1.38u w=1u l=0.5u
X115 vdda vdda vdda vdda sg13_lv_pmos ad=0.19p pd=1.38u as=0 ps=0 w=1u l=2u
X116 w_833_2071.t76 w_833_2071.t74 w_833_2071.t42 w_833_2071.t0 sg13_lv_nmos ad=0.34p pd=2.68u as=0 ps=0 w=1u l=0.5u
X117 w_833_2071.t42 w_833_2071.t72 w_833_2071.t42 w_833_2071.t2 sg13_lv_nmos ad=0.19p pd=1.38u as=0 ps=0 w=1u l=0.5u
X118 ibias.t4 ibias.t5 vssa vssa sg13_lv_nmos ad=0.19p pd=1.38u as=0.19p ps=1.38u w=1u l=2u
X119 a_610_6649.t1 a_610_6649.t0 vdda vdda sg13_lv_pmos ad=0.19p pd=1.38u as=0.19p ps=1.38u w=1u l=2u
X120 vssa vssa vssa vssa sg13_lv_nmos ad=0.19p pd=1.38u as=0 ps=0 w=1u l=2u
X121 w_833_2071.t42 w_833_2071.t70 w_833_2071.t42 w_833_2071.t16 sg13_lv_nmos ad=0.19p pd=1.38u as=0 ps=0 w=1u l=0.5u
X122 vdda vdda vdda vdda sg13_lv_pmos ad=0.19p pd=1.38u as=0 ps=0 w=1u l=2u
X123 a_610_6649.t20 vinp.t20 w_833_2071.t14 w_833_2071.t0 sg13_lv_nmos ad=0.19p pd=1.38u as=0.34p ps=2.68u w=1u l=0.5u
X124 w_833_2071.t19 vinp.t21 a_610_6649.t15 w_833_2071.t2 sg13_lv_nmos ad=0.19p pd=1.38u as=0.19p ps=1.38u w=1u l=0.5u
X125 vout.t2 a_610_6649.t33 vdda vdda sg13_lv_pmos ad=0.19p pd=1.38u as=0.19p ps=1.38u w=1u l=2u
X126 a_610_6649.t13 vinp.t22 w_833_2071.t32 w_833_2071.t26 sg13_lv_nmos ad=0.19p pd=1.38u as=0.19p ps=1.38u w=1u l=0.5u
X127 a_610_6649.t19 vinp.t23 w_833_2071.t38 w_833_2071.t44 sg13_lv_nmos ad=0.19p pd=1.38u as=0.19p ps=1.38u w=1u l=0.5u
X128 vssa vssa vssa vssa sg13_lv_nmos ad=0.19p pd=1.38u as=0 ps=0 w=1u l=2u
X129 vout.t7 vinn.t21 w_833_2071.t17 w_833_2071.t16 sg13_lv_nmos ad=0.19p pd=1.38u as=0.19p ps=1.38u w=1u l=0.5u
X130 w_833_2071.t22 vinn.t22 vout.t13 w_833_2071.t8 sg13_lv_nmos ad=0.19p pd=1.38u as=0.19p ps=1.38u w=1u l=0.5u
X131 w_833_2071.t27 vinn.t23 vout.t12 w_833_2071.t31 sg13_lv_nmos ad=0.19p pd=1.38u as=0.19p ps=1.38u w=1u l=0.5u
X132 w_833_2071.t119 vinn.t24 vout.t11 w_833_2071.t20 sg13_lv_nmos ad=0.19p pd=1.38u as=0.19p ps=1.38u w=1u l=0.5u
X133 w_833_2071.t69 w_833_2071.t67 w_833_2071.t48 w_833_2071.t0 sg13_lv_nmos ad=0.34p pd=2.68u as=0 ps=0 w=1u l=0.5u
X134 w_833_2071.t48 w_833_2071.t65 w_833_2071.t48 w_833_2071.t2 sg13_lv_nmos ad=0.19p pd=1.38u as=0 ps=0 w=1u l=0.5u
X135 vout.t10 vinn.t25 w_833_2071.t109 w_833_2071.t4 sg13_lv_nmos ad=0.19p pd=1.38u as=0.19p ps=1.38u w=1u l=0.5u
X136 vdda vdda vdda vdda sg13_lv_pmos ad=0.19p pd=1.38u as=0 ps=0 w=1u l=2u
X137 a_610_6649.t18 vinp.t24 w_833_2071.t15 w_833_2071.t28 sg13_lv_nmos ad=0.19p pd=1.38u as=0.19p ps=1.38u w=1u l=0.5u
X138 w_833_2071.t132 vinp.t25 a_610_6649.t17 w_833_2071.t29 sg13_lv_nmos ad=0.19p pd=1.38u as=0.19p ps=1.38u w=1u l=0.5u
X139 a_610_6649.t12 vinp.t26 w_833_2071.t35 w_833_2071.t34 sg13_lv_nmos ad=0.19p pd=1.38u as=0.19p ps=1.38u w=1u l=0.5u
X140 vout.t1 a_610_6649.t34 vdda vdda sg13_lv_pmos ad=0.19p pd=1.38u as=0.19p ps=1.38u w=1u l=2u
X141 vssa ibias.t3 ibias.t4 vssa sg13_lv_nmos ad=0.19p pd=1.38u as=0.19p ps=1.38u w=1u l=2u
X142 w_833_2071.t48 w_833_2071.t63 w_833_2071.t48 w_833_2071.t16 sg13_lv_nmos ad=0.19p pd=1.38u as=0 ps=0 w=1u l=0.5u
X143 w_833_2071.t133 vinp.t27 a_610_6649.t16 w_833_2071.t24 sg13_lv_nmos ad=0.34p pd=2.68u as=0.19p ps=1.38u w=1u l=0.5u
X144 vdda vdda vdda vdda sg13_lv_pmos ad=0.19p pd=1.38u as=0 ps=0 w=1u l=1u
X145 w_833_2071.t42 w_833_2071.t61 w_833_2071.t42 w_833_2071.t4 sg13_lv_nmos ad=0.19p pd=1.38u as=0 ps=0 w=1u l=0.5u
X146 w_833_2071.t42 w_833_2071.t59 w_833_2071.t42 w_833_2071.t34 sg13_lv_nmos ad=0.19p pd=1.38u as=0 ps=0 w=1u l=0.5u
X147 w_833_2071.t42 w_833_2071.t57 w_833_2071.t42 w_833_2071.t29 sg13_lv_nmos ad=0.19p pd=1.38u as=0 ps=0 w=1u l=0.5u
X148 ibias.t1 ibias.t2 vssa vssa sg13_lv_nmos ad=0.19p pd=1.38u as=0.19p ps=1.38u w=1u l=2u
X149 w_833_2071.t42 w_833_2071.t55 w_833_2071.t42 w_833_2071.t24 sg13_lv_nmos ad=0.19p pd=1.38u as=0 ps=0 w=1u l=0.5u
X150 vssa vssa vssa vssa sg13_lv_nmos ad=0.19p pd=1.38u as=0 ps=0 w=1u l=2u
X151 a_610_6649.t15 vinp.t28 w_833_2071.t18 w_833_2071.t4 sg13_lv_nmos ad=0.19p pd=1.38u as=0.19p ps=1.38u w=1u l=0.5u
X152 w_833_2071.t32 vinp.t29 a_610_6649.t14 w_833_2071.t31 sg13_lv_nmos ad=0.19p pd=1.38u as=0.19p ps=1.38u w=1u l=0.5u
X153 vout.t9 vinn.t26 w_833_2071.t19 w_833_2071.t34 sg13_lv_nmos ad=0.19p pd=1.38u as=0.19p ps=1.38u w=1u l=0.5u
X154 w_833_2071.t38 vinp.t30 a_610_6649.t13 w_833_2071.t20 sg13_lv_nmos ad=0.19p pd=1.38u as=0.19p ps=1.38u w=1u l=0.5u
X155 w_833_2071.t17 vinn.t27 vout.t8 w_833_2071.t29 sg13_lv_nmos ad=0.19p pd=1.38u as=0.19p ps=1.38u w=1u l=0.5u
X156 w_833_2071.t25 vinn.t28 vout.t7 w_833_2071.t24 sg13_lv_nmos ad=0.34p pd=2.68u as=0.19p ps=1.38u w=1u l=0.5u
X157 vdda vdda vdda vdda sg13_lv_pmos ad=0.19p pd=1.38u as=0 ps=0 w=1u l=2u
X158 vout.t6 vinn.t29 w_833_2071.t22 w_833_2071.t28 sg13_lv_nmos ad=0.19p pd=1.38u as=0.19p ps=1.38u w=1u l=0.5u
X159 vdda vdda vdda vdda sg13_lv_pmos ad=0.19p pd=1.38u as=0 ps=0 w=1u l=2u
X160 vdda vdda vdda vdda sg13_lv_pmos ad=0.34p pd=2.68u as=0 ps=0 w=1u l=1u
X161 w_833_2071.t48 w_833_2071.t53 w_833_2071.t48 w_833_2071.t4 sg13_lv_nmos ad=0.19p pd=1.38u as=0 ps=0 w=1u l=0.5u
X162 vout.t5 vinn.t30 w_833_2071.t37 w_833_2071.t26 sg13_lv_nmos ad=0.19p pd=1.38u as=0.19p ps=1.38u w=1u l=0.5u
X163 vout.t4 vinn.t31 w_833_2071.t126 w_833_2071.t44 sg13_lv_nmos ad=0.19p pd=1.38u as=0.19p ps=1.38u w=1u l=0.5u
X164 vssa vssa vssa vssa sg13_lv_nmos ad=0.19p pd=1.38u as=0 ps=0 w=1u l=2u
X165 w_833_2071.t48 w_833_2071.t51 w_833_2071.t48 w_833_2071.t29 sg13_lv_nmos ad=0.19p pd=1.38u as=0 ps=0 w=1u l=0.5u
X166 w_833_2071.t48 w_833_2071.t49 w_833_2071.t48 w_833_2071.t34 sg13_lv_nmos ad=0.19p pd=1.38u as=0 ps=0 w=1u l=0.5u
X167 w_833_2071.t9 vinp.t31 a_610_6649.t12 w_833_2071.t8 sg13_lv_nmos ad=0.19p pd=1.38u as=0.19p ps=1.38u w=1u l=0.5u
X168 vssa ibias.t0 ibias.t1 vssa sg13_lv_nmos ad=0.19p pd=1.38u as=0.19p ps=1.38u w=1u l=2u
X169 w_833_2071.t48 w_833_2071.t47 w_833_2071.t48 w_833_2071.t24 sg13_lv_nmos ad=0.19p pd=1.38u as=0 ps=0 w=1u l=0.5u
X170 vout.t0 a_610_6649.t35 vdda vdda sg13_lv_pmos ad=0.19p pd=1.38u as=0.19p ps=1.38u w=1u l=2u
X171 vdda vdda vdda vdda sg13_lv_pmos ad=0.19p pd=1.38u as=0 ps=0 w=1u l=2u
X172 vssa vssa vssa vssa sg13_lv_nmos ad=0.19p pd=1.38u as=0 ps=0 w=1u l=2u
X173 w_833_2071.t42 w_833_2071.t45 w_833_2071.t42 w_833_2071.t26 sg13_lv_nmos ad=0.19p pd=1.38u as=0 ps=0 w=1u l=0.5u
X174 w_833_2071.t42 w_833_2071.t43 w_833_2071.t42 w_833_2071.t44 sg13_lv_nmos ad=0.19p pd=1.38u as=0 ps=0 w=1u l=0.5u
X175 w_833_2071.t42 w_833_2071.t41 w_833_2071.t42 w_833_2071.t8 sg13_lv_nmos ad=0.19p pd=1.38u as=0 ps=0 w=1u l=0.5u
R0 ibias.n22 ibias.n0 10.8172
R1 ibias.n22 ibias.n21 9.37277
R2 ibias.n15 ibias.t10 5.6534
R3 ibias.n20 ibias.t4 5.6534
R4 ibias.n10 ibias.t7 5.6534
R5 ibias.n5 ibias.t1 5.6534
R6 ibias.n11 ibias.t16 4.42794
R7 ibias.n13 ibias.t19 4.42666
R8 ibias.n3 ibias.t17 4.42666
R9 ibias.n1 ibias.t13 4.42557
R10 ibias ibias.n22 3.81636
R11 ibias.n21 ibias.n10 3.73245
R12 ibias.n5 ibias.n0 3.73245
R13 ibias.n15 ibias.n0 3.04514
R14 ibias.n21 ibias.n20 3.04514
R15 ibias.n2 ibias.t8 2.82253
R16 ibias.n1 ibias.t14 2.82253
R17 ibias.n13 ibias.t15 2.82253
R18 ibias.n14 ibias.t9 2.82253
R19 ibias.n12 ibias.t5 2.82253
R20 ibias.n11 ibias.t18 2.82253
R21 ibias.n17 ibias.t11 2.82253
R22 ibias.n18 ibias.t3 2.82253
R23 ibias.n7 ibias.t2 2.82253
R24 ibias.n8 ibias.t6 2.82253
R25 ibias.n3 ibias.t12 2.82253
R26 ibias.n4 ibias.t0 2.82253
R27 ibias.n2 ibias.n1 1.60563
R28 ibias.n14 ibias.n13 1.60563
R29 ibias.n12 ibias.n11 1.60563
R30 ibias.n18 ibias.n17 1.60563
R31 ibias.n8 ibias.n7 1.60563
R32 ibias.n4 ibias.n3 1.60563
R33 ibias.n16 ibias.n14 0.704016
R34 ibias.n19 ibias.n18 0.704016
R35 ibias.n9 ibias.n8 0.704016
R36 ibias.n6 ibias.n4 0.704016
R37 ibias.n9 ibias.n2 0.702736
R38 ibias.n19 ibias.n12 0.702736
R39 ibias.n17 ibias.n16 0.702736
R40 ibias.n7 ibias.n6 0.702736
R41 ibias.n16 ibias.n15 0.26531
R42 ibias.n20 ibias.n19 0.26531
R43 ibias.n10 ibias.n9 0.26531
R44 ibias.n6 ibias.n5 0.26531
R45 w_833_2071.n271 w_833_2071.n34 60.1886
R46 w_833_2071.n254 w_833_2071.t24 56.4268
R47 w_833_2071.n255 w_833_2071.n53 56.4268
R48 w_833_2071.n256 w_833_2071.n52 56.4268
R49 w_833_2071.n252 w_833_2071.n6 56.4268
R50 w_833_2071.n251 w_833_2071.n8 56.4268
R51 w_833_2071.n250 w_833_2071.n9 56.4268
R52 w_833_2071.n259 w_833_2071.n49 56.4268
R53 w_833_2071.n260 w_833_2071.n48 56.4268
R54 w_833_2071.n248 w_833_2071.n14 56.4268
R55 w_833_2071.n261 w_833_2071.n47 56.4268
R56 w_833_2071.n247 w_833_2071.n15 56.4268
R57 w_833_2071.n246 w_833_2071.n16 56.4268
R58 w_833_2071.n263 w_833_2071.n45 56.4268
R59 w_833_2071.n264 w_833_2071.n44 56.4268
R60 w_833_2071.n265 w_833_2071.n43 56.4268
R61 w_833_2071.n242 w_833_2071.n19 56.4268
R62 w_833_2071.n241 w_833_2071.n20 56.4268
R63 w_833_2071.t39 w_833_2071.n41 56.4268
R64 w_833_2071.n240 w_833_2071.n21 56.4268
R65 w_833_2071.n267 w_833_2071.n38 56.4268
R66 w_833_2071.n268 w_833_2071.n37 56.4268
R67 w_833_2071.n238 w_833_2071.n23 56.4268
R68 w_833_2071.n237 w_833_2071.n25 56.4268
R69 w_833_2071.n236 w_833_2071.n26 56.4268
R70 w_833_2071.n272 w_833_2071.n31 56.4268
R71 w_833_2071.n273 w_833_2071.n30 56.4268
R72 w_833_2071.n269 w_833_2071.t20 52.6651
R73 w_833_2071.t6 w_833_2071.n50 48.9033
R74 w_833_2071.n244 w_833_2071.t34 48.9033
R75 w_833_2071.t0 w_833_2071.n28 48.9033
R76 w_833_2071.n257 w_833_2071.t29 45.1416
R77 w_833_2071.t2 w_833_2071.n18 45.1416
R78 w_833_2071.n235 w_833_2071.t31 45.1416
R79 w_833_2071.t26 w_833_2071.n35 41.3798
R80 w_833_2071.t16 w_833_2071.n5 37.6181
R81 w_833_2071.n266 w_833_2071.t4 37.6181
R82 w_833_2071.n249 w_833_2071.t11 33.8563
R83 w_833_2071.t8 w_833_2071.n46 33.8563
R84 w_833_2071.t44 w_833_2071.n22 30.0945
R85 w_833_2071.n239 w_833_2071.t44 26.3328
R86 w_833_2071.t11 w_833_2071.n10 22.571
R87 w_833_2071.n262 w_833_2071.t8 22.571
R88 w_833_2071.n253 w_833_2071.t16 18.8093
R89 w_833_2071.t4 w_833_2071.n42 18.8093
R90 w_833_2071.n56 w_833_2071.t24 17.3178
R91 w_833_2071.t42 w_833_2071.n219 17.0005
R92 w_833_2071.n181 w_833_2071.n29 17.0005
R93 w_833_2071.n181 w_833_2071.n30 17.0005
R94 w_833_2071.n181 w_833_2071.n28 17.0005
R95 w_833_2071.n181 w_833_2071.n31 17.0005
R96 w_833_2071.n181 w_833_2071.n27 17.0005
R97 w_833_2071.n181 w_833_2071.n34 17.0005
R98 w_833_2071.n181 w_833_2071.n26 17.0005
R99 w_833_2071.n181 w_833_2071.n35 17.0005
R100 w_833_2071.n181 w_833_2071.n25 17.0005
R101 w_833_2071.n181 w_833_2071.n36 17.0005
R102 w_833_2071.n181 w_833_2071.n23 17.0005
R103 w_833_2071.n181 w_833_2071.n37 17.0005
R104 w_833_2071.n181 w_833_2071.n22 17.0005
R105 w_833_2071.n181 w_833_2071.n38 17.0005
R106 w_833_2071.n181 w_833_2071.n21 17.0005
R107 w_833_2071.n181 w_833_2071.n41 17.0005
R108 w_833_2071.n181 w_833_2071.n20 17.0005
R109 w_833_2071.n181 w_833_2071.n42 17.0005
R110 w_833_2071.n181 w_833_2071.n19 17.0005
R111 w_833_2071.n181 w_833_2071.n43 17.0005
R112 w_833_2071.n181 w_833_2071.n18 17.0005
R113 w_833_2071.n181 w_833_2071.n44 17.0005
R114 w_833_2071.n181 w_833_2071.n17 17.0005
R115 w_833_2071.n181 w_833_2071.n45 17.0005
R116 w_833_2071.n181 w_833_2071.n16 17.0005
R117 w_833_2071.n181 w_833_2071.n46 17.0005
R118 w_833_2071.n181 w_833_2071.n15 17.0005
R119 w_833_2071.n181 w_833_2071.n47 17.0005
R120 w_833_2071.n181 w_833_2071.n14 17.0005
R121 w_833_2071.n181 w_833_2071.n48 17.0005
R122 w_833_2071.n181 w_833_2071.n10 17.0005
R123 w_833_2071.n181 w_833_2071.n49 17.0005
R124 w_833_2071.n181 w_833_2071.n9 17.0005
R125 w_833_2071.n181 w_833_2071.n50 17.0005
R126 w_833_2071.n181 w_833_2071.n8 17.0005
R127 w_833_2071.n181 w_833_2071.n51 17.0005
R128 w_833_2071.n181 w_833_2071.n6 17.0005
R129 w_833_2071.n181 w_833_2071.n52 17.0005
R130 w_833_2071.n181 w_833_2071.n5 17.0005
R131 w_833_2071.n181 w_833_2071.n53 17.0005
R132 w_833_2071.n181 w_833_2071.t24 17.0005
R133 w_833_2071.n307 w_833_2071.n181 17.0005
R134 w_833_2071.n73 w_833_2071.n29 17.0005
R135 w_833_2071.n73 w_833_2071.n30 17.0005
R136 w_833_2071.n73 w_833_2071.n28 17.0005
R137 w_833_2071.n73 w_833_2071.n31 17.0005
R138 w_833_2071.n73 w_833_2071.n27 17.0005
R139 w_833_2071.n73 w_833_2071.n34 17.0005
R140 w_833_2071.n73 w_833_2071.n26 17.0005
R141 w_833_2071.n73 w_833_2071.n35 17.0005
R142 w_833_2071.n73 w_833_2071.n25 17.0005
R143 w_833_2071.n73 w_833_2071.n36 17.0005
R144 w_833_2071.n73 w_833_2071.n23 17.0005
R145 w_833_2071.n73 w_833_2071.n37 17.0005
R146 w_833_2071.n73 w_833_2071.n22 17.0005
R147 w_833_2071.n73 w_833_2071.n38 17.0005
R148 w_833_2071.n73 w_833_2071.n21 17.0005
R149 w_833_2071.n73 w_833_2071.n41 17.0005
R150 w_833_2071.n73 w_833_2071.n20 17.0005
R151 w_833_2071.n73 w_833_2071.n42 17.0005
R152 w_833_2071.n73 w_833_2071.n19 17.0005
R153 w_833_2071.n73 w_833_2071.n43 17.0005
R154 w_833_2071.n73 w_833_2071.n18 17.0005
R155 w_833_2071.n73 w_833_2071.n44 17.0005
R156 w_833_2071.n73 w_833_2071.n17 17.0005
R157 w_833_2071.n73 w_833_2071.n45 17.0005
R158 w_833_2071.n73 w_833_2071.n16 17.0005
R159 w_833_2071.n73 w_833_2071.n46 17.0005
R160 w_833_2071.n73 w_833_2071.n15 17.0005
R161 w_833_2071.n73 w_833_2071.n47 17.0005
R162 w_833_2071.n73 w_833_2071.n14 17.0005
R163 w_833_2071.n73 w_833_2071.n48 17.0005
R164 w_833_2071.n73 w_833_2071.n10 17.0005
R165 w_833_2071.n73 w_833_2071.n49 17.0005
R166 w_833_2071.n73 w_833_2071.n9 17.0005
R167 w_833_2071.n73 w_833_2071.n50 17.0005
R168 w_833_2071.n73 w_833_2071.n8 17.0005
R169 w_833_2071.n73 w_833_2071.n51 17.0005
R170 w_833_2071.n73 w_833_2071.n6 17.0005
R171 w_833_2071.n73 w_833_2071.n52 17.0005
R172 w_833_2071.n73 w_833_2071.n5 17.0005
R173 w_833_2071.n73 w_833_2071.n53 17.0005
R174 w_833_2071.n73 w_833_2071.t24 17.0005
R175 w_833_2071.n307 w_833_2071.n73 17.0005
R176 w_833_2071.n308 w_833_2071.n29 17.0005
R177 w_833_2071.n308 w_833_2071.n30 17.0005
R178 w_833_2071.n308 w_833_2071.n28 17.0005
R179 w_833_2071.n308 w_833_2071.n31 17.0005
R180 w_833_2071.n308 w_833_2071.n27 17.0005
R181 w_833_2071.n308 w_833_2071.n34 17.0005
R182 w_833_2071.n308 w_833_2071.n26 17.0005
R183 w_833_2071.n308 w_833_2071.n35 17.0005
R184 w_833_2071.n308 w_833_2071.n25 17.0005
R185 w_833_2071.n308 w_833_2071.n36 17.0005
R186 w_833_2071.n308 w_833_2071.n23 17.0005
R187 w_833_2071.n308 w_833_2071.n37 17.0005
R188 w_833_2071.n308 w_833_2071.n22 17.0005
R189 w_833_2071.n308 w_833_2071.n38 17.0005
R190 w_833_2071.n308 w_833_2071.n21 17.0005
R191 w_833_2071.n308 w_833_2071.n41 17.0005
R192 w_833_2071.n308 w_833_2071.n20 17.0005
R193 w_833_2071.n308 w_833_2071.n42 17.0005
R194 w_833_2071.n308 w_833_2071.n19 17.0005
R195 w_833_2071.n308 w_833_2071.n43 17.0005
R196 w_833_2071.n308 w_833_2071.n18 17.0005
R197 w_833_2071.n308 w_833_2071.n44 17.0005
R198 w_833_2071.n308 w_833_2071.n17 17.0005
R199 w_833_2071.n308 w_833_2071.n45 17.0005
R200 w_833_2071.n308 w_833_2071.n16 17.0005
R201 w_833_2071.n308 w_833_2071.n46 17.0005
R202 w_833_2071.n308 w_833_2071.n15 17.0005
R203 w_833_2071.n308 w_833_2071.n47 17.0005
R204 w_833_2071.n308 w_833_2071.n14 17.0005
R205 w_833_2071.n308 w_833_2071.n48 17.0005
R206 w_833_2071.n308 w_833_2071.n10 17.0005
R207 w_833_2071.n308 w_833_2071.n49 17.0005
R208 w_833_2071.n308 w_833_2071.n9 17.0005
R209 w_833_2071.n308 w_833_2071.n50 17.0005
R210 w_833_2071.n308 w_833_2071.n8 17.0005
R211 w_833_2071.n308 w_833_2071.n51 17.0005
R212 w_833_2071.n308 w_833_2071.n6 17.0005
R213 w_833_2071.n308 w_833_2071.n52 17.0005
R214 w_833_2071.n308 w_833_2071.n5 17.0005
R215 w_833_2071.n308 w_833_2071.n53 17.0005
R216 w_833_2071.n308 w_833_2071.t24 17.0005
R217 w_833_2071.n308 w_833_2071.n307 17.0005
R218 w_833_2071.n306 w_833_2071.n29 17.0005
R219 w_833_2071.n306 w_833_2071.n30 17.0005
R220 w_833_2071.n306 w_833_2071.n28 17.0005
R221 w_833_2071.n306 w_833_2071.n31 17.0005
R222 w_833_2071.n306 w_833_2071.n27 17.0005
R223 w_833_2071.n306 w_833_2071.n34 17.0005
R224 w_833_2071.n306 w_833_2071.n26 17.0005
R225 w_833_2071.n306 w_833_2071.n35 17.0005
R226 w_833_2071.n306 w_833_2071.n25 17.0005
R227 w_833_2071.n306 w_833_2071.n36 17.0005
R228 w_833_2071.n306 w_833_2071.n23 17.0005
R229 w_833_2071.n306 w_833_2071.n37 17.0005
R230 w_833_2071.n306 w_833_2071.n22 17.0005
R231 w_833_2071.n306 w_833_2071.n38 17.0005
R232 w_833_2071.n306 w_833_2071.n21 17.0005
R233 w_833_2071.n306 w_833_2071.n41 17.0005
R234 w_833_2071.n306 w_833_2071.n20 17.0005
R235 w_833_2071.n306 w_833_2071.n42 17.0005
R236 w_833_2071.n306 w_833_2071.n19 17.0005
R237 w_833_2071.n306 w_833_2071.n43 17.0005
R238 w_833_2071.n306 w_833_2071.n18 17.0005
R239 w_833_2071.n306 w_833_2071.n44 17.0005
R240 w_833_2071.n306 w_833_2071.n17 17.0005
R241 w_833_2071.n306 w_833_2071.n45 17.0005
R242 w_833_2071.n306 w_833_2071.n16 17.0005
R243 w_833_2071.n306 w_833_2071.n46 17.0005
R244 w_833_2071.n306 w_833_2071.n15 17.0005
R245 w_833_2071.n306 w_833_2071.n47 17.0005
R246 w_833_2071.n306 w_833_2071.n14 17.0005
R247 w_833_2071.n306 w_833_2071.n48 17.0005
R248 w_833_2071.n306 w_833_2071.n10 17.0005
R249 w_833_2071.n306 w_833_2071.n49 17.0005
R250 w_833_2071.n306 w_833_2071.n9 17.0005
R251 w_833_2071.n306 w_833_2071.n50 17.0005
R252 w_833_2071.n306 w_833_2071.n8 17.0005
R253 w_833_2071.n306 w_833_2071.n51 17.0005
R254 w_833_2071.n306 w_833_2071.n6 17.0005
R255 w_833_2071.n306 w_833_2071.n52 17.0005
R256 w_833_2071.n306 w_833_2071.n5 17.0005
R257 w_833_2071.n306 w_833_2071.n53 17.0005
R258 w_833_2071.n306 w_833_2071.t24 17.0005
R259 w_833_2071.n307 w_833_2071.n306 17.0005
R260 w_833_2071.n274 w_833_2071.n254 17.0005
R261 w_833_2071.n274 w_833_2071.n255 17.0005
R262 w_833_2071.n274 w_833_2071.n253 17.0005
R263 w_833_2071.n274 w_833_2071.n256 17.0005
R264 w_833_2071.n274 w_833_2071.n252 17.0005
R265 w_833_2071.n274 w_833_2071.n257 17.0005
R266 w_833_2071.n274 w_833_2071.n251 17.0005
R267 w_833_2071.n274 w_833_2071.n258 17.0005
R268 w_833_2071.n274 w_833_2071.n250 17.0005
R269 w_833_2071.n274 w_833_2071.n259 17.0005
R270 w_833_2071.n274 w_833_2071.n249 17.0005
R271 w_833_2071.n274 w_833_2071.n260 17.0005
R272 w_833_2071.n274 w_833_2071.n248 17.0005
R273 w_833_2071.n274 w_833_2071.n261 17.0005
R274 w_833_2071.n274 w_833_2071.n247 17.0005
R275 w_833_2071.n274 w_833_2071.n262 17.0005
R276 w_833_2071.n274 w_833_2071.n246 17.0005
R277 w_833_2071.n274 w_833_2071.n263 17.0005
R278 w_833_2071.n274 w_833_2071.n244 17.0005
R279 w_833_2071.n274 w_833_2071.n264 17.0005
R280 w_833_2071.n274 w_833_2071.n243 17.0005
R281 w_833_2071.n274 w_833_2071.n265 17.0005
R282 w_833_2071.n274 w_833_2071.n242 17.0005
R283 w_833_2071.n274 w_833_2071.n266 17.0005
R284 w_833_2071.n274 w_833_2071.n241 17.0005
R285 w_833_2071.n274 w_833_2071.t39 17.0005
R286 w_833_2071.n274 w_833_2071.n240 17.0005