* NGSPICE file created from OTA_final.ext - technology: ihp-sg13g2

.subckt OTA_final ibias vinn vinp vout vdda vssa
X0 vssa.t16 vssa.t66 vssa.t16 vssa.t4 sg13_lv_nmos ad=0.19p pd=1.38u as=0 ps=0 w=1u l=2u
X1 w_833_2071.t124 ibias.t12 vssa.t1 vssa.t0 sg13_lv_nmos ad=0.19p pd=1.38u as=0.19p ps=1.38u w=1u l=2u
X2 a_610_6649.t27 vinp.t0 w_833_2071.t22 w_833_2071.t7 sg13_lv_nmos ad=0.19p pd=1.38u as=0.19p ps=1.38u w=1u l=0.5u
X3 w_833_2071.t40 vinn.t0 vout.t9 w_833_2071.t2 sg13_lv_nmos ad=0.19p pd=1.38u as=0.19p ps=1.38u w=1u l=0.5u
X4 a_610_6649.t26 vinp.t1 w_833_2071.t17 w_833_2071.t27 sg13_lv_nmos ad=0.19p pd=1.38u as=0.19p ps=1.38u w=1u l=0.5u
X5 vdda.t68 vdda.t66 vdda.t23 vdda.t0 sg13_lv_pmos ad=0.34p pd=2.68u as=0 ps=0 w=1u l=1u
X6 vdda.t16 a_610_6649.t28 vout.t0 vdda.t0 sg13_lv_pmos ad=0.19p pd=1.38u as=0.19p ps=1.38u w=1u l=2u
X7 w_833_2071.t125 ibias.t13 vssa.t9 vssa.t4 sg13_lv_nmos ad=0.19p pd=1.38u as=0.19p ps=1.38u w=1u l=2u
X8 w_833_2071.t61 w_833_2071.t118 w_833_2071.t61 w_833_2071.t7 sg13_lv_nmos ad=0.19p pd=1.38u as=0 ps=0 w=1u l=0.5u
X9 w_833_2071.t25 vinn.t1 vout.t16 w_833_2071.t18 sg13_lv_nmos ad=0.19p pd=1.38u as=0.19p ps=1.38u w=1u l=0.5u
X10 vdda.t65 vdda.t63 vdda.t1 vdda.t0 sg13_lv_pmos ad=0.34p pd=2.68u as=0 ps=0 w=1u l=1u
X11 w_833_2071.t10 vinn.t2 vout.t14 w_833_2071.t9 sg13_lv_nmos ad=0.19p pd=1.38u as=0.19p ps=1.38u w=1u l=0.5u
X12 w_833_2071.t126 vinn.t3 vout.t5 w_833_2071.t16 sg13_lv_nmos ad=0.19p pd=1.38u as=0.19p ps=1.38u w=1u l=0.5u
X13 w_833_2071.t61 w_833_2071.t116 w_833_2071.t61 w_833_2071.t2 sg13_lv_nmos ad=0.19p pd=1.38u as=0 ps=0 w=1u l=0.5u
X14 w_833_2071.t61 w_833_2071.t114 w_833_2071.t61 w_833_2071.t27 sg13_lv_nmos ad=0.19p pd=1.38u as=0 ps=0 w=1u l=0.5u
X15 a_610_6649.t24 vinp.t2 w_833_2071.t3 w_833_2071.t43 sg13_lv_nmos ad=0.19p pd=1.38u as=0.19p ps=1.38u w=1u l=0.5u
X16 vdda.t8 a_610_6649.t9 a_610_6649.t3 vdda.t0 sg13_lv_pmos ad=0.19p pd=1.38u as=0.19p ps=1.38u w=1u l=2u
X17 w_833_2071.t55 w_833_2071.t112 w_833_2071.t55 w_833_2071.t18 sg13_lv_nmos ad=0.19p pd=1.38u as=0 ps=0 w=1u l=0.5u
X18 vssa.t65 vssa.t63 vssa.t9 vssa.t33 sg13_lv_nmos ad=0.36p pd=2.72u as=0 ps=0 w=1u l=1u
X19 w_833_2071.t55 w_833_2071.t110 w_833_2071.t55 w_833_2071.t16 sg13_lv_nmos ad=0.19p pd=1.38u as=0 ps=0 w=1u l=0.5u
X20 ibias.t10 ibias.t11 vssa.t7 vssa.t8 sg13_lv_nmos ad=0.19p pd=1.38u as=0.19p ps=1.38u w=1u l=2u
X21 w_833_2071.t55 w_833_2071.t108 w_833_2071.t55 w_833_2071.t43 sg13_lv_nmos ad=0.19p pd=1.38u as=0 ps=0 w=1u l=0.5u
X22 vdda.t18 vdda.t61 vdda.t18 vdda.t0 sg13_lv_pmos ad=0.19p pd=1.38u as=0 ps=0 w=1u l=2u
X23 w_833_2071.t22 vinp.t3 a_610_6649.t20 w_833_2071.t18 sg13_lv_nmos ad=0.19p pd=1.38u as=0.19p ps=1.38u w=1u l=0.5u
X24 vdda.t5 a_610_6649.t0 a_610_6649.t1 vdda.t0 sg13_lv_pmos ad=0.19p pd=1.38u as=0.19p ps=1.38u w=1u l=2u
X25 w_833_2071.t17 vinp.t4 a_610_6649.t27 w_833_2071.t16 sg13_lv_nmos ad=0.19p pd=1.38u as=0.19p ps=1.38u w=1u l=0.5u
X26 vdda.t23 vdda.t59 vdda.t23 vdda.t0 sg13_lv_pmos ad=0.19p pd=1.38u as=0 ps=0 w=1u l=2u
X27 a_610_6649.t25 vinp.t5 w_833_2071.t53 w_833_2071.t14 sg13_lv_nmos ad=0.19p pd=1.38u as=0.19p ps=1.38u w=1u l=0.5u
X28 vout.t18 vinn.t4 w_833_2071.t40 w_833_2071.t43 sg13_lv_nmos ad=0.19p pd=1.38u as=0.19p ps=1.38u w=1u l=0.5u
X29 w_833_2071.t35 vinp.t6 a_610_6649.t19 w_833_2071.t9 sg13_lv_nmos ad=0.19p pd=1.38u as=0.19p ps=1.38u w=1u l=0.5u
X30 vdda.t13 a_610_6649.t29 vout.t3 vdda.t0 sg13_lv_pmos ad=0.19p pd=1.38u as=0.19p ps=1.38u w=1u l=2u
X31 vssa.t16 vssa.t61 vssa.t16 vssa.t6 sg13_lv_nmos ad=0.19p pd=1.38u as=0 ps=0 w=1u l=2u
X32 vssa.t68 ibias.t14 w_833_2071.t125 vssa.t20 sg13_lv_nmos ad=0.19p pd=1.38u as=0.19p ps=1.38u w=1u l=2u
X33 w_833_2071.t61 w_833_2071.t106 w_833_2071.t61 w_833_2071.t18 sg13_lv_nmos ad=0.19p pd=1.38u as=0 ps=0 w=1u l=0.5u
X34 vssa.t21 vssa.t59 vssa.t21 vssa.t8 sg13_lv_nmos ad=0.19p pd=1.38u as=0 ps=0 w=1u l=2u
X35 vdda.t23 vdda.t57 vdda.t23 vdda.t0 sg13_lv_pmos ad=0.19p pd=1.38u as=0 ps=0 w=1u l=2u
X36 vdda.t7 a_610_6649.t30 vout.t2 vdda.t0 sg13_lv_pmos ad=0.19p pd=1.38u as=0.19p ps=1.38u w=1u l=2u
X37 w_833_2071.t61 w_833_2071.t104 w_833_2071.t61 w_833_2071.t16 sg13_lv_nmos ad=0.19p pd=1.38u as=0 ps=0 w=1u l=0.5u
X38 vssa.t16 vssa.t57 vssa.t16 vssa.t31 sg13_lv_nmos ad=0.19p pd=1.38u as=0 ps=0 w=1u l=1u
X39 vssa.t14 ibias.t9 ibias.t10 vssa.t13 sg13_lv_nmos ad=0.19p pd=1.38u as=0.19p ps=1.38u w=1u l=2u
X40 w_833_2071.t61 w_833_2071.t102 w_833_2071.t61 w_833_2071.t43 sg13_lv_nmos ad=0.19p pd=1.38u as=0 ps=0 w=1u l=0.5u
X41 vssa.t21 vssa.t55 vssa.t21 vssa.t31 sg13_lv_nmos ad=0.19p pd=1.38u as=0 ps=0 w=1u l=1u
X42 vdda.t6 a_610_6649.t11 a_610_6649.t7 vdda.t0 sg13_lv_pmos ad=0.19p pd=1.38u as=0.19p ps=1.38u w=1u l=2u
X43 vdda.t56 vdda.t54 vdda.t18 vdda.t0 sg13_lv_pmos ad=0.34p pd=2.68u as=0 ps=0 w=1u l=1u
X44 vssa.t21 vssa.t53 vssa.t21 vssa.t4 sg13_lv_nmos ad=0.19p pd=1.38u as=0 ps=0 w=1u l=2u
X45 w_833_2071.t122 ibias.t15 vssa.t14 vssa.t0 sg13_lv_nmos ad=0.19p pd=1.38u as=0.19p ps=1.38u w=1u l=2u
X46 vdda.t23 vdda.t52 vdda.t23 vdda.t0 sg13_lv_pmos ad=0.19p pd=1.38u as=0 ps=0 w=1u l=2u
X47 vout.t17 vinn.t5 w_833_2071.t47 w_833_2071.t14 sg13_lv_nmos ad=0.19p pd=1.38u as=0.19p ps=1.38u w=1u l=0.5u
X48 vdda.t3 a_610_6649.t4 a_610_6649.t5 vdda.t0 sg13_lv_pmos ad=0.19p pd=1.38u as=0.19p ps=1.38u w=1u l=2u
X49 w_833_2071.t53 vinp.t7 a_610_6649.t18 w_833_2071.t20 sg13_lv_nmos ad=0.19p pd=1.38u as=0.19p ps=1.38u w=1u l=0.5u
X50 vssa.t21 vssa.t51 vssa.t21 vssa.t2 sg13_lv_nmos ad=0.19p pd=1.38u as=0 ps=0 w=1u l=2u
X51 w_833_2071.t123 ibias.t16 vssa.t5 vssa.t4 sg13_lv_nmos ad=0.19p pd=1.38u as=0.19p ps=1.38u w=1u l=2u
X52 vdda.t23 vdda.t50 vdda.t23 vdda.t0 sg13_lv_pmos ad=0.19p pd=1.38u as=0 ps=0 w=1u l=2u
X53 vssa.t45 ibias.t17 w_833_2071.t124 vssa.t11 sg13_lv_nmos ad=0.19p pd=1.38u as=0.19p ps=1.38u w=1u l=2u
X54 vdda.t4 a_610_6649.t31 vout.t1 vdda.t0 sg13_lv_pmos ad=0.19p pd=1.38u as=0.19p ps=1.38u w=1u l=2u
X55 vssa.t21 vssa.t49 vssa.t21 vssa.t0 sg13_lv_nmos ad=0.19p pd=1.38u as=0 ps=0 w=1u l=2u
X56 w_833_2071.t31 vinn.t6 vout.t4 w_833_2071.t9 sg13_lv_nmos ad=0.19p pd=1.38u as=0.19p ps=1.38u w=1u l=0.5u
X57 vssa.t48 vssa.t46 vssa.t5 vssa.t33 sg13_lv_nmos ad=0.36p pd=2.72u as=0 ps=0 w=1u l=1u
X58 vdda.t18 vdda.t48 vdda.t18 vdda.t0 sg13_lv_pmos ad=0.19p pd=1.38u as=0 ps=0 w=1u l=2u
X59 w_833_2071.t55 w_833_2071.t100 w_833_2071.t55 w_833_2071.t9 sg13_lv_nmos ad=0.19p pd=1.38u as=0 ps=0 w=1u l=0.5u
X60 vout.t12 vinn.t7 w_833_2071.t136 w_833_2071.t81 sg13_lv_nmos ad=0.19p pd=1.38u as=0.34p ps=2.68u w=1u l=0.5u
X61 vssa.t45 vssa.t44 vssa.t45 vssa.t31 sg13_lv_nmos ad=0.19p pd=1.38u as=0 ps=0 w=1u l=1u
X62 w_833_2071.t47 vinn.t8 vout.t6 w_833_2071.t20 sg13_lv_nmos ad=0.19p pd=1.38u as=0.19p ps=1.38u w=1u l=0.5u
X63 vdda.t18 vdda.t46 vdda.t18 vdda.t0 sg13_lv_pmos ad=0.19p pd=1.38u as=0 ps=0 w=1u l=2u
X64 w_833_2071.t1 vinn.t9 vout.t19 w_833_2071.t12 sg13_lv_nmos ad=0.19p pd=1.38u as=0.19p ps=1.38u w=1u l=0.5u
X65 w_833_2071.t24 vinp.t8 a_610_6649.t26 w_833_2071.t9 sg13_lv_nmos ad=0.19p pd=1.38u as=0.19p ps=1.38u w=1u l=0.5u
X66 a_610_6649.t23 vinp.t9 w_833_2071.t45 w_833_2071.t5 sg13_lv_nmos ad=0.19p pd=1.38u as=0.19p ps=1.38u w=1u l=0.5u
X67 vssa.t3 ibias.t18 w_833_2071.t123 vssa.t20 sg13_lv_nmos ad=0.19p pd=1.38u as=0.19p ps=1.38u w=1u l=2u
X68 a_610_6649.t17 vinp.t10 w_833_2071.t21 w_833_2071.t14 sg13_lv_nmos ad=0.19p pd=1.38u as=0.19p ps=1.38u w=1u l=0.5u
X69 vssa.t16 vssa.t42 vssa.t16 vssa.t20 sg13_lv_nmos ad=0.19p pd=1.38u as=0 ps=0 w=1u l=2u
X70 w_833_2071.t61 w_833_2071.t98 w_833_2071.t61 w_833_2071.t9 sg13_lv_nmos ad=0.19p pd=1.38u as=0 ps=0 w=1u l=0.5u
X71 vssa.t16 vssa.t40 vssa.t16 vssa.t0 sg13_lv_nmos ad=0.19p pd=1.38u as=0 ps=0 w=1u l=2u
X72 vdda.t18 vdda.t44 vdda.t18 vdda.t0 sg13_lv_pmos ad=0.19p pd=1.38u as=0 ps=0 w=1u l=2u
X73 ibias.t7 ibias.t8 vssa.t68 vssa.t2 sg13_lv_nmos ad=0.19p pd=1.38u as=0.19p ps=1.38u w=1u l=2u
X74 w_833_2071.t55 w_833_2071.t96 w_833_2071.t55 w_833_2071.t14 sg13_lv_nmos ad=0.19p pd=1.38u as=0 ps=0 w=1u l=0.5u
X75 a_610_6649.t1 a_610_6649.t8 vdda.t8 vdda.t0 sg13_lv_pmos ad=0.19p pd=1.38u as=0.19p ps=1.38u w=1u l=2u
X76 a_610_6649.t14 vinp.t11 w_833_2071.t127 w_833_2071.t81 sg13_lv_nmos ad=0.19p pd=1.38u as=0.34p ps=2.68u w=1u l=0.5u
X77 vdda.t18 vdda.t42 vdda.t18 vdda.t0 sg13_lv_pmos ad=0.19p pd=1.38u as=0 ps=0 w=1u l=2u
X78 vssa.t39 vssa.t37 vssa.t16 vssa.t33 sg13_lv_nmos ad=0.36p pd=2.72u as=0 ps=0 w=1u l=1u
X79 vout.t8 vinn.t10 w_833_2071.t15 w_833_2071.t14 sg13_lv_nmos ad=0.19p pd=1.38u as=0.19p ps=1.38u w=1u l=0.5u
X80 w_833_2071.t13 vinp.t12 a_610_6649.t22 w_833_2071.t12 sg13_lv_nmos ad=0.19p pd=1.38u as=0.19p ps=1.38u w=1u l=0.5u
X81 vdda.t16 vdda.t40 vdda.t16 vdda.t0 sg13_lv_pmos ad=0.19p pd=1.38u as=0 ps=0 w=1u l=1u
X82 vout.t19 vinn.t11 w_833_2071.t10 w_833_2071.t23 sg13_lv_nmos ad=0.19p pd=1.38u as=0.19p ps=1.38u w=1u l=0.5u
X83 vout.t15 vinn.t12 w_833_2071.t6 w_833_2071.t5 sg13_lv_nmos ad=0.19p pd=1.38u as=0.19p ps=1.38u w=1u l=0.5u
X84 a_610_6649.t21 vinp.t13 w_833_2071.t1 w_833_2071.t0 sg13_lv_nmos ad=0.19p pd=1.38u as=0.19p ps=1.38u w=1u l=0.5u
X85 w_833_2071.t45 vinp.t14 a_610_6649.t25 w_833_2071.t11 sg13_lv_nmos ad=0.19p pd=1.38u as=0.19p ps=1.38u w=1u l=0.5u
X86 vssa.t12 ibias.t19 w_833_2071.t122 vssa.t11 sg13_lv_nmos ad=0.19p pd=1.38u as=0.19p ps=1.38u w=1u l=2u
X87 w_833_2071.t61 w_833_2071.t94 w_833_2071.t61 w_833_2071.t14 sg13_lv_nmos ad=0.19p pd=1.38u as=0 ps=0 w=1u l=0.5u
X88 w_833_2071.t21 vinp.t15 a_610_6649.t24 w_833_2071.t20 sg13_lv_nmos ad=0.19p pd=1.38u as=0.19p ps=1.38u w=1u l=0.5u
X89 w_833_2071.t42 vinp.t16 a_610_6649.t23 w_833_2071.t33 sg13_lv_nmos ad=0.34p pd=2.68u as=0.19p ps=1.38u w=1u l=0.5u
X90 vssa.t10 ibias.t6 ibias.t7 vssa.t6 sg13_lv_nmos ad=0.19p pd=1.38u as=0.19p ps=1.38u w=1u l=2u
X91 vssa.t21 vssa.t35 vssa.t21 vssa.t13 sg13_lv_nmos ad=0.19p pd=1.38u as=0 ps=0 w=1u l=2u
X92 vdda.t23 vdda.t38 vdda.t23 vdda.t0 sg13_lv_pmos ad=0.19p pd=1.38u as=0 ps=0 w=1u l=2u
X93 a_610_6649.t3 a_610_6649.t2 vdda.t7 vdda.t0 sg13_lv_pmos ad=0.19p pd=1.38u as=0.19p ps=1.38u w=1u l=2u
X94 w_833_2071.t55 w_833_2071.t92 w_833_2071.t55 w_833_2071.t20 sg13_lv_nmos ad=0.19p pd=1.38u as=0 ps=0 w=1u l=0.5u
X95 vssa.t34 vssa.t32 vssa.t21 vssa.t33 sg13_lv_nmos ad=0.36p pd=2.72u as=0 ps=0 w=1u l=1u
X96 a_610_6649.t5 a_610_6649.t10 vdda.t6 vdda.t0 sg13_lv_pmos ad=0.19p pd=1.38u as=0.19p ps=1.38u w=1u l=2u
X97 vdda.t23 vdda.t36 vdda.t23 vdda.t0 sg13_lv_pmos ad=0.19p pd=1.38u as=0 ps=0 w=1u l=1u
X98 vout.t0 a_610_6649.t32 vdda.t5 vdda.t0 sg13_lv_pmos ad=0.19p pd=1.38u as=0.19p ps=1.38u w=1u l=2u
X99 w_833_2071.t15 vinn.t13 vout.t18 w_833_2071.t20 sg13_lv_nmos ad=0.19p pd=1.38u as=0.19p ps=1.38u w=1u l=0.5u
X100 a_610_6649.t22 vinp.t17 w_833_2071.t35 w_833_2071.t23 sg13_lv_nmos ad=0.19p pd=1.38u as=0.19p ps=1.38u w=1u l=0.5u
X101 vssa.t12 vssa.t30 vssa.t12 vssa.t31 sg13_lv_nmos ad=0.19p pd=1.38u as=0 ps=0 w=1u l=1u
X102 w_833_2071.t6 vinn.t14 vout.t17 w_833_2071.t11 sg13_lv_nmos ad=0.19p pd=1.38u as=0.19p ps=1.38u w=1u l=0.5u
X103 vout.t13 vinn.t15 w_833_2071.t13 w_833_2071.t0 sg13_lv_nmos ad=0.19p pd=1.38u as=0.19p ps=1.38u w=1u l=0.5u
X104 vdda.t13 vdda.t34 vdda.t13 vdda.t0 sg13_lv_pmos ad=0.19p pd=1.38u as=0 ps=0 w=1u l=1u
X105 vout.t11 vinn.t16 w_833_2071.t8 w_833_2071.t7 sg13_lv_nmos ad=0.19p pd=1.38u as=0.19p ps=1.38u w=1u l=0.5u
X106 vout.t16 vinn.t17 w_833_2071.t129 w_833_2071.t81 sg13_lv_nmos ad=0.19p pd=1.38u as=0.34p ps=2.68u w=1u l=0.5u
X107 w_833_2071.t146 vinn.t18 vout.t15 w_833_2071.t33 sg13_lv_nmos ad=0.34p pd=2.68u as=0.19p ps=1.38u w=1u l=0.5u
X108 vout.t14 vinn.t19 w_833_2071.t28 w_833_2071.t27 sg13_lv_nmos ad=0.19p pd=1.38u as=0.19p ps=1.38u w=1u l=0.5u
X109 w_833_2071.t44 vinp.t18 a_610_6649.t21 w_833_2071.t2 sg13_lv_nmos ad=0.19p pd=1.38u as=0.19p ps=1.38u w=1u l=0.5u
X110 w_833_2071.t61 w_833_2071.t90 w_833_2071.t61 w_833_2071.t20 sg13_lv_nmos ad=0.19p pd=1.38u as=0 ps=0 w=1u l=0.5u
X111 w_833_2071.t26 vinn.t20 vout.t10 w_833_2071.t12 sg13_lv_nmos ad=0.19p pd=1.38u as=0.19p ps=1.38u w=1u l=0.5u
X112 vssa.t16 vssa.t28 vssa.t16 vssa.t8 sg13_lv_nmos ad=0.19p pd=1.38u as=0 ps=0 w=1u l=2u
X113 vssa.t16 vssa.t26 vssa.t16 vssa.t13 sg13_lv_nmos ad=0.19p pd=1.38u as=0 ps=0 w=1u l=2u
X114 a_610_6649.t16 vinp.t19 w_833_2071.t48 w_833_2071.t5 sg13_lv_nmos ad=0.19p pd=1.38u as=0.19p ps=1.38u w=1u l=0.5u
X115 vdda.t23 vdda.t32 vdda.t23 vdda.t0 sg13_lv_pmos ad=0.19p pd=1.38u as=0 ps=0 w=1u l=2u
X116 w_833_2071.t89 w_833_2071.t87 w_833_2071.t55 w_833_2071.t81 sg13_lv_nmos ad=0.34p pd=2.68u as=0 ps=0 w=1u l=0.5u
X117 w_833_2071.t55 w_833_2071.t85 w_833_2071.t55 w_833_2071.t12 sg13_lv_nmos ad=0.19p pd=1.38u as=0 ps=0 w=1u l=0.5u
X118 ibias.t4 ibias.t5 vssa.t3 vssa.t2 sg13_lv_nmos ad=0.19p pd=1.38u as=0.19p ps=1.38u w=1u l=2u
X119 a_610_6649.t7 a_610_6649.t6 vdda.t4 vdda.t0 sg13_lv_pmos ad=0.19p pd=1.38u as=0.19p ps=1.38u w=1u l=2u
X120 vssa.t21 vssa.t24 vssa.t21 vssa.t11 sg13_lv_nmos ad=0.19p pd=1.38u as=0 ps=0 w=1u l=2u
X121 w_833_2071.t55 w_833_2071.t83 w_833_2071.t55 w_833_2071.t5 sg13_lv_nmos ad=0.19p pd=1.38u as=0 ps=0 w=1u l=0.5u
X122 vdda.t23 vdda.t30 vdda.t23 vdda.t0 sg13_lv_pmos ad=0.19p pd=1.38u as=0 ps=0 w=1u l=2u
X123 a_610_6649.t20 vinp.t20 w_833_2071.t140 w_833_2071.t81 sg13_lv_nmos ad=0.19p pd=1.38u as=0.34p ps=2.68u w=1u l=0.5u
X124 w_833_2071.t49 vinp.t21 a_610_6649.t15 w_833_2071.t12 sg13_lv_nmos ad=0.19p pd=1.38u as=0.19p ps=1.38u w=1u l=0.5u
X125 vout.t3 a_610_6649.t33 vdda.t3 vdda.t0 sg13_lv_pmos ad=0.19p pd=1.38u as=0.19p ps=1.38u w=1u l=2u
X126 a_610_6649.t13 vinp.t22 w_833_2071.t19 w_833_2071.t7 sg13_lv_nmos ad=0.19p pd=1.38u as=0.19p ps=1.38u w=1u l=0.5u
X127 a_610_6649.t19 vinp.t23 w_833_2071.t36 w_833_2071.t27 sg13_lv_nmos ad=0.19p pd=1.38u as=0.19p ps=1.38u w=1u l=0.5u
X128 vssa.t21 vssa.t22 vssa.t21 vssa.t6 sg13_lv_nmos ad=0.19p pd=1.38u as=0 ps=0 w=1u l=2u
X129 vout.t7 vinn.t21 w_833_2071.t30 w_833_2071.t5 sg13_lv_nmos ad=0.19p pd=1.38u as=0.19p ps=1.38u w=1u l=0.5u
X130 w_833_2071.t4 vinn.t22 vout.t13 w_833_2071.t2 sg13_lv_nmos ad=0.19p pd=1.38u as=0.19p ps=1.38u w=1u l=0.5u
X131 w_833_2071.t8 vinn.t23 vout.t12 w_833_2071.t18 sg13_lv_nmos ad=0.19p pd=1.38u as=0.19p ps=1.38u w=1u l=0.5u
X132 w_833_2071.t28 vinn.t24 vout.t11 w_833_2071.t16 sg13_lv_nmos ad=0.19p pd=1.38u as=0.19p ps=1.38u w=1u l=0.5u
X133 w_833_2071.t82 w_833_2071.t80 w_833_2071.t61 w_833_2071.t81 sg13_lv_nmos ad=0.34p pd=2.68u as=0 ps=0 w=1u l=0.5u
X134 w_833_2071.t61 w_833_2071.t78 w_833_2071.t61 w_833_2071.t12 sg13_lv_nmos ad=0.19p pd=1.38u as=0 ps=0 w=1u l=0.5u
X135 vout.t10 vinn.t25 w_833_2071.t31 w_833_2071.t23 sg13_lv_nmos ad=0.19p pd=1.38u as=0.19p ps=1.38u w=1u l=0.5u
X136 vdda.t18 vdda.t28 vdda.t18 vdda.t0 sg13_lv_pmos ad=0.19p pd=1.38u as=0 ps=0 w=1u l=2u
X137 a_610_6649.t18 vinp.t24 w_833_2071.t44 w_833_2071.t43 sg13_lv_nmos ad=0.19p pd=1.38u as=0.19p ps=1.38u w=1u l=0.5u
X138 w_833_2071.t48 vinp.t25 a_610_6649.t17 w_833_2071.t11 sg13_lv_nmos ad=0.19p pd=1.38u as=0.19p ps=1.38u w=1u l=0.5u
X139 a_610_6649.t12 vinp.t26 w_833_2071.t26 w_833_2071.t0 sg13_lv_nmos ad=0.19p pd=1.38u as=0.19p ps=1.38u w=1u l=0.5u
X140 vout.t2 a_610_6649.t34 vdda.t2 vdda.t0 sg13_lv_pmos ad=0.19p pd=1.38u as=0.19p ps=1.38u w=1u l=2u
X141 vssa.t7 ibias.t3 ibias.t4 vssa.t6 sg13_lv_nmos ad=0.19p pd=1.38u as=0.19p ps=1.38u w=1u l=2u
X142 w_833_2071.t61 w_833_2071.t76 w_833_2071.t61 w_833_2071.t5 sg13_lv_nmos ad=0.19p pd=1.38u as=0 ps=0 w=1u l=0.5u
X143 w_833_2071.t139 vinp.t27 a_610_6649.t16 w_833_2071.t33 sg13_lv_nmos ad=0.34p pd=2.68u as=0.19p ps=1.38u w=1u l=0.5u
X144 vdda.t18 vdda.t26 vdda.t18 vdda.t0 sg13_lv_pmos ad=0.19p pd=1.38u as=0 ps=0 w=1u l=1u
X145 w_833_2071.t55 w_833_2071.t74 w_833_2071.t55 w_833_2071.t23 sg13_lv_nmos ad=0.19p pd=1.38u as=0 ps=0 w=1u l=0.5u
X146 w_833_2071.t55 w_833_2071.t72 w_833_2071.t55 w_833_2071.t0 sg13_lv_nmos ad=0.19p pd=1.38u as=0 ps=0 w=1u l=0.5u
X147 w_833_2071.t55 w_833_2071.t70 w_833_2071.t55 w_833_2071.t11 sg13_lv_nmos ad=0.19p pd=1.38u as=0 ps=0 w=1u l=0.5u
X148 ibias.t1 ibias.t2 vssa.t10 vssa.t8 sg13_lv_nmos ad=0.19p pd=1.38u as=0.19p ps=1.38u w=1u l=2u
X149 w_833_2071.t55 w_833_2071.t68 w_833_2071.t55 w_833_2071.t33 sg13_lv_nmos ad=0.19p pd=1.38u as=0 ps=0 w=1u l=0.5u
X150 vssa.t21 vssa.t19 vssa.t21 vssa.t20 sg13_lv_nmos ad=0.19p pd=1.38u as=0 ps=0 w=1u l=2u
X151 a_610_6649.t15 vinp.t28 w_833_2071.t24 w_833_2071.t23 sg13_lv_nmos ad=0.19p pd=1.38u as=0.19p ps=1.38u w=1u l=0.5u
X152 w_833_2071.t19 vinp.t29 a_610_6649.t14 w_833_2071.t18 sg13_lv_nmos ad=0.19p pd=1.38u as=0.19p ps=1.38u w=1u l=0.5u
X153 vout.t9 vinn.t26 w_833_2071.t49 w_833_2071.t0 sg13_lv_nmos ad=0.19p pd=1.38u as=0.19p ps=1.38u w=1u l=0.5u
X154 w_833_2071.t36 vinp.t30 a_610_6649.t13 w_833_2071.t16 sg13_lv_nmos ad=0.19p pd=1.38u as=0.19p ps=1.38u w=1u l=0.5u
X155 w_833_2071.t30 vinn.t27 vout.t8 w_833_2071.t11 sg13_lv_nmos ad=0.19p pd=1.38u as=0.19p ps=1.38u w=1u l=0.5u
X156 w_833_2071.t34 vinn.t28 vout.t7 w_833_2071.t33 sg13_lv_nmos ad=0.34p pd=2.68u as=0.19p ps=1.38u w=1u l=0.5u
X157 vdda.t18 vdda.t24 vdda.t18 vdda.t0 sg13_lv_pmos ad=0.19p pd=1.38u as=0 ps=0 w=1u l=2u
X158 vout.t6 vinn.t29 w_833_2071.t4 w_833_2071.t43 sg13_lv_nmos ad=0.19p pd=1.38u as=0.19p ps=1.38u w=1u l=0.5u
X159 vdda.t23 vdda.t22 vdda.t23 vdda.t0 sg13_lv_pmos ad=0.19p pd=1.38u as=0 ps=0 w=1u l=2u
X160 vdda.t21 vdda.t19 vdda.t2 vdda.t0 sg13_lv_pmos ad=0.34p pd=2.68u as=0 ps=0 w=1u l=1u
X161 w_833_2071.t61 w_833_2071.t66 w_833_2071.t61 w_833_2071.t23 sg13_lv_nmos ad=0.19p pd=1.38u as=0 ps=0 w=1u l=0.5u
X162 vout.t5 vinn.t30 w_833_2071.t25 w_833_2071.t7 sg13_lv_nmos ad=0.19p pd=1.38u as=0.19p ps=1.38u w=1u l=0.5u
X163 vout.t4 vinn.t31 w_833_2071.t126 w_833_2071.t27 sg13_lv_nmos ad=0.19p pd=1.38u as=0.19p ps=1.38u w=1u l=0.5u
X164 vssa.t16 vssa.t17 vssa.t16 vssa.t2 sg13_lv_nmos ad=0.19p pd=1.38u as=0 ps=0 w=1u l=2u
X165 w_833_2071.t61 w_833_2071.t64 w_833_2071.t61 w_833_2071.t11 sg13_lv_nmos ad=0.19p pd=1.38u as=0 ps=0 w=1u l=0.5u
X166 w_833_2071.t61 w_833_2071.t62 w_833_2071.t61 w_833_2071.t0 sg13_lv_nmos ad=0.19p pd=1.38u as=0 ps=0 w=1u l=0.5u
X167 w_833_2071.t3 vinp.t31 a_610_6649.t12 w_833_2071.t2 sg13_lv_nmos ad=0.19p pd=1.38u as=0.19p ps=1.38u w=1u l=0.5u
X168 vssa.t1 ibias.t0 ibias.t1 vssa.t13 sg13_lv_nmos ad=0.19p pd=1.38u as=0.19p ps=1.38u w=1u l=2u
X169 w_833_2071.t61 w_833_2071.t60 w_833_2071.t61 w_833_2071.t33 sg13_lv_nmos ad=0.19p pd=1.38u as=0 ps=0 w=1u l=0.5u
X170 vout.t1 a_610_6649.t35 vdda.t1 vdda.t0 sg13_lv_pmos ad=0.19p pd=1.38u as=0.19p ps=1.38u w=1u l=2u
X171 vdda.t18 vdda.t17 vdda.t18 vdda.t0 sg13_lv_pmos ad=0.19p pd=1.38u as=0 ps=0 w=1u l=2u
X172 vssa.t16 vssa.t15 vssa.t16 vssa.t11 sg13_lv_nmos ad=0.19p pd=1.38u as=0 ps=0 w=1u l=2u
X173 w_833_2071.t55 w_833_2071.t58 w_833_2071.t55 w_833_2071.t7 sg13_lv_nmos ad=0.19p pd=1.38u as=0 ps=0 w=1u l=0.5u
X174 w_833_2071.t55 w_833_2071.t56 w_833_2071.t55 w_833_2071.t27 sg13_lv_nmos ad=0.19p pd=1.38u as=0 ps=0 w=1u l=0.5u
X175 w_833_2071.t55 w_833_2071.t54 w_833_2071.t55 w_833_2071.t2 sg13_lv_nmos ad=0.19p pd=1.38u as=0 ps=0 w=1u l=0.5u
R0 vssa.t31 vssa.n20 101.591
R1 vssa.t33 vssa.n50 101.591
R2 vssa.t11 vssa.n23 52.335
R3 vssa.n86 vssa.t11 52.335
R4 vssa.n83 vssa.t0 52.335
R5 vssa.t0 vssa.n27 52.335
R6 vssa.t13 vssa.n30 52.335
R7 vssa.n77 vssa.t13 52.335
R8 vssa.n74 vssa.t8 52.335
R9 vssa.t8 vssa.n34 52.335
R10 vssa.t6 vssa.n37 52.335
R11 vssa.n68 vssa.t6 52.335
R12 vssa.n65 vssa.t2 52.335
R13 vssa.t2 vssa.n41 52.335
R14 vssa.t20 vssa.n44 52.335
R15 vssa.n60 vssa.t20 52.335
R16 vssa.n57 vssa.t4 52.335
R17 vssa.t4 vssa.n48 52.335
R18 vssa.n268 vssa.t16 17.1548
R19 vssa.t21 vssa.n166 17.0005
R20 vssa.n251 vssa.n140 17.0005
R21 vssa.n251 vssa.n48 17.0005
R22 vssa.n251 vssa.n60 17.0005
R23 vssa.n251 vssa.n41 17.0005
R24 vssa.n251 vssa.n68 17.0005
R25 vssa.n251 vssa.n34 17.0005
R26 vssa.n251 vssa.n77 17.0005
R27 vssa.n251 vssa.n27 17.0005
R28 vssa.n251 vssa.n86 17.0005
R29 vssa.n251 vssa.n250 17.0005
R30 vssa.n117 vssa.n53 17.0005
R31 vssa.n117 vssa.n50 17.0005
R32 vssa.n117 vssa.n57 17.0005
R33 vssa.n117 vssa.n44 17.0005
R34 vssa.n117 vssa.n65 17.0005
R35 vssa.n117 vssa.n37 17.0005
R36 vssa.n117 vssa.n74 17.0005
R37 vssa.n117 vssa.n30 17.0005
R38 vssa.n117 vssa.n83 17.0005
R39 vssa.n117 vssa.n23 17.0005
R40 vssa.n253 vssa.n117 17.0005
R41 vssa.n117 vssa.n20 17.0005
R42 vssa.n117 vssa.n12 17.0005
R43 vssa.n118 vssa.n117 17.0005
R44 vssa.n140 vssa.n1 17.0005
R45 vssa.n51 vssa.n1 17.0005
R46 vssa.n53 vssa.n1 17.0005
R47 vssa.n50 vssa.n1 17.0005
R48 vssa.n55 vssa.n1 17.0005
R49 vssa.n49 vssa.n1 17.0005
R50 vssa.n56 vssa.n1 17.0005
R51 vssa.n48 vssa.n1 17.0005
R52 vssa.n57 vssa.n1 17.0005
R53 vssa.n47 vssa.n1 17.0005
R54 vssa.n58 vssa.n1 17.0005
R55 vssa.n46 vssa.n1 17.0005
R56 vssa.n59 vssa.n1 17.0005
R57 vssa.n45 vssa.n1 17.0005
R58 vssa.n60 vssa.n1 17.0005
R59 vssa.n44 vssa.n1 17.0005
R60 vssa.n61 vssa.n1 17.0005
R61 vssa.n43 vssa.n1 17.0005
R62 vssa.n63 vssa.n1 17.0005
R63 vssa.n42 vssa.n1 17.0005
R64 vssa.n64 vssa.n1 17.0005
R65 vssa.n41 vssa.n1 17.0005
R66 vssa.n65 vssa.n1 17.0005
R67 vssa.n40 vssa.n1 17.0005
R68 vssa.n66 vssa.n1 17.0005
R69 vssa.n39 vssa.n1 17.0005
R70 vssa.n67 vssa.n1 17.0005
R71 vssa.n38 vssa.n1 17.0005
R72 vssa.n68 vssa.n1 17.0005
R73 vssa.n37 vssa.n1 17.0005
R74 vssa.n69 vssa.n1 17.0005
R75 vssa.n36 vssa.n1 17.0005
R76 vssa.n72 vssa.n1 17.0005
R77 vssa.n35 vssa.n1 17.0005
R78 vssa.n73 vssa.n1 17.0005
R79 vssa.n34 vssa.n1 17.0005
R80 vssa.n74 vssa.n1 17.0005
R81 vssa.n33 vssa.n1 17.0005
R82 vssa.n75 vssa.n1 17.0005
R83 vssa.n32 vssa.n1 17.0005
R84 vssa.n76 vssa.n1 17.0005
R85 vssa.n31 vssa.n1 17.0005
R86 vssa.n77 vssa.n1 17.0005
R87 vssa.n30 vssa.n1 17.0005
R88 vssa.n78 vssa.n1 17.0005
R89 vssa.n29 vssa.n1 17.0005
R90 vssa.n81 vssa.n1 17.0005
R91 vssa.n28 vssa.n1 17.0005
R92 vssa.n82 vssa.n1 17.0005
R93 vssa.n27 vssa.n1 17.0005
R94 vssa.n83 vssa.n1 17.0005
R95 vssa.n26 vssa.n1 17.0005
R96 vssa.n84 vssa.n1 17.0005
R97 vssa.n25 vssa.n1 17.0005
R98 vssa.n85 vssa.n1 17.0005
R99 vssa.n24 vssa.n1 17.0005
R100 vssa.n86 vssa.n1 17.0005
R101 vssa.n23 vssa.n1 17.0005
R102 vssa.n87 vssa.n1 17.0005
R103 vssa.n22 vssa.n1 17.0005
R104 vssa.n90 vssa.n1 17.0005
R105 vssa.n21 vssa.n1 17.0005
R106 vssa.n253 vssa.n1 17.0005
R107 vssa.n20 vssa.n1 17.0005
R108 vssa.n262 vssa.t45 17.0005
R109 vssa.t12 vssa.n162 17.0005
R110 vssa.n254 vssa.n51 17.0005
R111 vssa.n254 vssa.n53 17.0005
R112 vssa.n254 vssa.n50 17.0005
R113 vssa.n254 vssa.n55 17.0005
R114 vssa.n254 vssa.n49 17.0005
R115 vssa.n254 vssa.n56 17.0005
R116 vssa.n254 vssa.n48 17.0005
R117 vssa.n254 vssa.n57 17.0005
R118 vssa.n254 vssa.n47 17.0005
R119 vssa.n254 vssa.n58 17.0005
R120 vssa.n254 vssa.n46 17.0005
R121 vssa.n254 vssa.n59 17.0005
R122 vssa.n254 vssa.n45 17.0005
R123 vssa.n254 vssa.n60 17.0005
R124 vssa.n254 vssa.n44 17.0005
R125 vssa.n254 vssa.n61 17.0005
R126 vssa.n254 vssa.n43 17.0005
R127 vssa.n254 vssa.n63 17.0005
R128 vssa.n254 vssa.n42 17.0005
R129 vssa.n254 vssa.n64 17.0005
R130 vssa.n254 vssa.n41 17.0005
R131 vssa.n254 vssa.n65 17.0005
R132 vssa.n254 vssa.n40 17.0005
R133 vssa.n254 vssa.n66 17.0005
R134 vssa.n254 vssa.n39 17.0005
R135 vssa.n254 vssa.n67 17.0005
R136 vssa.n254 vssa.n38 17.0005
R137 vssa.n254 vssa.n68 17.0005
R138 vssa.n254 vssa.n37 17.0005
R139 vssa.n254 vssa.n69 17.0005
R140 vssa.n254 vssa.n36 17.0005
R141 vssa.n254 vssa.n72 17.0005
R142 vssa.n254 vssa.n35 17.0005
R143 vssa.n254 vssa.n73 17.0005
R144 vssa.n254 vssa.n34 17.0005
R145 vssa.n254 vssa.n74 17.0005
R146 vssa.n254 vssa.n33 17.0005
R147 vssa.n254 vssa.n75 17.0005
R148 vssa.n254 vssa.n32 17.0005
R149 vssa.n254 vssa.n76 17.0005
R150 vssa.n254 vssa.n31 17.0005
R151 vssa.n254 vssa.n77 17.0005
R152 vssa.n254 vssa.n30 17.0005
R153 vssa.n254 vssa.n78 17.0005
R154 vssa.n254 vssa.n29 17.0005
R155 vssa.n254 vssa.n81 17.0005
R156 vssa.n254 vssa.n28 17.0005
R157 vssa.n254 vssa.n82 17.0005
R158 vssa.n254 vssa.n27 17.0005
R159 vssa.n254 vssa.n83 17.0005
R160 vssa.n254 vssa.n26 17.0005
R161 vssa.n254 vssa.n84 17.0005
R162 vssa.n254 vssa.n25 17.0005
R163 vssa.n254 vssa.n85 17.0005
R164 vssa.n254 vssa.n24 17.0005
R165 vssa.n254 vssa.n86 17.0005
R166 vssa.n254 vssa.n23 17.0005
R167 vssa.n254 vssa.n87 17.0005
R168 vssa.n254 vssa.n22 17.0005
R169 vssa.n254 vssa.n90 17.0005
R170 vssa.n254 vssa.n21 17.0005
R171 vssa.n254 vssa.n253 17.0005
R172 vssa.n254 vssa.n20 17.0005
R173 vssa.n254 vssa.n18 17.0005
R174 vssa.n140 vssa.n52 16.9882
R175 vssa.n118 vssa.n52 16.9882
R176 vssa.n116 vssa.n49 13.01
R177 vssa.n116 vssa.n55 13.01
R178 vssa.n119 vssa.n20 12.8328
R179 vssa.n252 vssa.n21 12.8328
R180 vssa.n92 vssa.n21 12.8328
R181 vssa.n121 vssa.n22 12.8328
R182 vssa.n93 vssa.n22 12.8328
R183 vssa.n122 vssa.n23 12.8328
R184 vssa.n94 vssa.n24 12.8328
R185 vssa.n156 vssa.n85 12.8328
R186 vssa.n95 vssa.n25 12.8328
R187 vssa.n155 vssa.n84 12.8328
R188 vssa.n96 vssa.n26 12.8328
R189 vssa.n154 vssa.n83 12.8328
R190 vssa.n97 vssa.n27 12.8328
R191 vssa.n124 vssa.n28 12.8328
R192 vssa.n98 vssa.n28 12.8328
R193 vssa.n125 vssa.n29 12.8328
R194 vssa.n99 vssa.n29 12.8328
R195 vssa.n126 vssa.n30 12.8328
R196 vssa.n100 vssa.n31 12.8328
R197 vssa.n152 vssa.n76 12.8328
R198 vssa.n101 vssa.n32 12.8328
R199 vssa.n151 vssa.n75 12.8328
R200 vssa.n102 vssa.n33 12.8328
R201 vssa.n150 vssa.n74 12.8328
R202 vssa.n103 vssa.n34 12.8328
R203 vssa.n128 vssa.n35 12.8328
R204 vssa.n104 vssa.n35 12.8328
R205 vssa.n129 vssa.n36 12.8328
R206 vssa.n105 vssa.n36 12.8328
R207 vssa.n130 vssa.n37 12.8328
R208 vssa.n106 vssa.n38 12.8328
R209 vssa.n148 vssa.n67 12.8328
R210 vssa.n107 vssa.n39 12.8328
R211 vssa.n147 vssa.n66 12.8328
R212 vssa.n108 vssa.n40 12.8328
R213 vssa.n146 vssa.n65 12.8328
R214 vssa.n109 vssa.n41 12.8328
R215 vssa.n132 vssa.n42 12.8328
R216 vssa.n110 vssa.n42 12.8328
R217 vssa.n133 vssa.n43 12.8328
R218 vssa.n111 vssa.n43 12.8328
R219 vssa.n134 vssa.n44 12.8328
R220 vssa.n112 vssa.n45 12.8328
R221 vssa.n144 vssa.n59 12.8328
R222 vssa.n113 vssa.n46 12.8328
R223 vssa.n143 vssa.n58 12.8328
R224 vssa.n114 vssa.n47 12.8328
R225 vssa.n142 vssa.n57 12.8328
R226 vssa.n115 vssa.n48 12.8328
R227 vssa.n136 vssa.n49 12.8328
R228 vssa.n137 vssa.n50 12.8328
R229 vssa.n138 vssa.n51 12.8328
R230 vssa.n139 vssa.n51 12.8328
R231 vssa.n138 vssa.n53 12.8328
R232 vssa.n137 vssa.n55 12.8328
R233 vssa.n136 vssa.n56 12.8328
R234 vssa.n142 vssa.n47 12.8328
R235 vssa.n143 vssa.n46 12.8328
R236 vssa.n144 vssa.n45 12.8328
R237 vssa.n134 vssa.n61 12.8328
R238 vssa.n133 vssa.n63 12.8328
R239 vssa.n132 vssa.n64 12.8328
R240 vssa.n146 vssa.n40 12.8328
R241 vssa.n147 vssa.n39 12.8328
R242 vssa.n148 vssa.n38 12.8328
R243 vssa.n130 vssa.n69 12.8328
R244 vssa.n129 vssa.n72 12.8328
R245 vssa.n128 vssa.n73 12.8328
R246 vssa.n150 vssa.n33 12.8328
R247 vssa.n151 vssa.n32 12.8328
R248 vssa.n152 vssa.n31 12.8328
R249 vssa.n126 vssa.n78 12.8328
R250 vssa.n125 vssa.n81 12.8328
R251 vssa.n124 vssa.n82 12.8328
R252 vssa.n154 vssa.n26 12.8328
R253 vssa.n155 vssa.n25 12.8328
R254 vssa.n156 vssa.n24 12.8328
R255 vssa.n122 vssa.n87 12.8328
R256 vssa.n121 vssa.n90 12.8328
R257 vssa.n253 vssa.n252 12.8328
R258 vssa.n119 vssa.n118 12.8328
R259 vssa.n140 vssa.n139 12.8328
R260 vssa.n115 vssa.n56 12.8328
R261 vssa.n114 vssa.n58 12.8328
R262 vssa.n113 vssa.n59 12.8328
R263 vssa.n112 vssa.n60 12.8328
R264 vssa.n111 vssa.n61 12.8328
R265 vssa.n110 vssa.n63 12.8328
R266 vssa.n109 vssa.n64 12.8328
R267 vssa.n108 vssa.n66 12.8328
R268 vssa.n107 vssa.n67 12.8328
R269 vssa.n106 vssa.n68 12.8328
R270 vssa.n105 vssa.n69 12.8328
R271 vssa.n104 vssa.n72 12.8328
R272 vssa.n103 vssa.n73 12.8328
R273 vssa.n102 vssa.n75 12.8328
R274 vssa.n101 vssa.n76 12.8328
R275 vssa.n100 vssa.n77 12.8328
R276 vssa.n99 vssa.n78 12.8328
R277 vssa.n98 vssa.n81 12.8328
R278 vssa.n97 vssa.n82 12.8328
R279 vssa.n96 vssa.n84 12.8328
R280 vssa.n95 vssa.n85 12.8328
R281 vssa.n94 vssa.n86 12.8328
R282 vssa.n93 vssa.n87 12.8328
R283 vssa.n92 vssa.n90 12.8328
R284 vssa.n247 vssa.t21 8.49776
R285 vssa.n266 vssa.t16 8.38237
R286 vssa.t45 vssa.n14 8.38237
R287 vssa.n163 vssa.t12 8.38237
R288 vssa.n88 vssa.t14 6.12323
R289 vssa.n79 vssa.t7 6.12323
R290 vssa.n70 vssa.t3 6.12323
R291 vssa.n186 vssa.t1 6.12323
R292 vssa.n188 vssa.t10 6.12323
R293 vssa.n190 vssa.t68 6.12323
R294 vssa.n251 vssa.n120 5.61281
R295 vssa.n117 vssa.n91 5.61281
R296 vssa.n269 vssa.n1 5.61281
R297 vssa.n255 vssa.n254 5.61281
R298 vssa.n220 vssa.t48 5.56245
R299 vssa.n226 vssa.t34 5.56245
R300 vssa.t21 vssa.n171 5.56245
R301 vssa.t21 vssa.n173 5.56245
R302 vssa.t21 vssa.n175 5.56245
R303 vssa.t21 vssa.n177 5.56245
R304 vssa.t21 vssa.n179 5.56245
R305 vssa.t21 vssa.n181 5.56245
R306 vssa.t21 vssa.n183 5.56245
R307 vssa.t21 vssa.n246 5.56245
R308 vssa.t21 vssa.n169 5.56245
R309 vssa.t45 vssa.n261 5.56245
R310 vssa.n184 vssa.t65 5.56245
R311 vssa.n216 vssa.t9 5.56245
R312 vssa.n0 vssa.t39 5.56245
R313 vssa.t16 vssa.n2 5.56245
R314 vssa.t16 vssa.n3 5.56245
R315 vssa.t16 vssa.n4 5.56245
R316 vssa.t16 vssa.n5 5.56245
R317 vssa.t16 vssa.n6 5.56245
R318 vssa.t16 vssa.n7 5.56245
R319 vssa.t16 vssa.n8 5.56245
R320 vssa.t16 vssa.n9 5.56245
R321 vssa.n209 vssa.t16 5.56245
R322 vssa.t12 vssa.n161 5.56245
R323 vssa.n222 vssa.t5 5.56245
R324 vssa.n223 vssa.t46 4.89895
R325 vssa.n167 vssa.t55 4.89895
R326 vssa.n227 vssa.t32 4.89895
R327 vssa.n260 vssa.t44 4.89895
R328 vssa.n217 vssa.t63 4.89895
R329 vssa.n192 vssa.t57 4.89895
R330 vssa.n211 vssa.t37 4.89895
R331 vssa.n160 vssa.t30 4.89895
R332 vssa.n251 vssa.n141 3.30365
R333 vssa.n214 vssa.n117 3.30365
R334 vssa.n287 vssa.n1 3.30365
R335 vssa.n254 vssa.n54 3.30365
R336 vssa.n253 vssa.t31 3.079
R337 vssa.n53 vssa.t33 3.079
R338 vssa.n243 vssa.t24 2.82253
R339 vssa.n241 vssa.t49 2.82253
R340 vssa.n239 vssa.t35 2.82253
R341 vssa.n237 vssa.t59 2.82253
R342 vssa.n235 vssa.t22 2.82253
R343 vssa.n233 vssa.t51 2.82253
R344 vssa.n231 vssa.t19 2.82253
R345 vssa.n229 vssa.t53 2.82253
R346 vssa.n194 vssa.t15 2.82253
R347 vssa.n196 vssa.t40 2.82253
R348 vssa.n198 vssa.t26 2.82253
R349 vssa.n200 vssa.t28 2.82253
R350 vssa.n202 vssa.t61 2.82253
R351 vssa.n204 vssa.t17 2.82253
R352 vssa.n206 vssa.t42 2.82253
R353 vssa.n208 vssa.t66 2.82253
R354 vssa.n251 vssa.n135 2.29333