* NGSPICE file created from OTA_final.ext - technology: ihp-sg13g2

.subckt nmos$2 a_268_0# a_68_n36# VSUB a_0_0#
X0 a_268_0# a_68_n36# a_0_0# VSUB sg13_lv_nmos ad=0.34p pd=2.68u as=0.34p ps=2.68u w=1u l=1u
C0 a_68_n36# VSUB 0.32912f
.ends

.subckt pmos$2 a_268_0# a_68_n36# w_n62_n62# VSUB a_0_0#
X0 a_268_0# a_68_n36# a_0_0# w_n62_n62# sg13_lv_pmos ad=0.34p pd=2.68u as=0.34p ps=2.68u w=1u l=1u
C0 w_n62_n62# a_68_n36# 0.14892f
C1 a_68_n36# VSUB 0.1802f
.ends

.subckt nmos a_944_0# a_1496_n36# a_1896_0# a_68_n36# a_3324_0# a_2372_0# a_3400_n36#
+ a_3800_0# VSUB a_2924_n36# a_1020_n36# a_2448_n36# a_468_0# a_1420_0# a_0_0# a_1972_n36#
+ a_544_n36# a_2848_0#
X0 a_2372_0# a_1972_n36# a_1896_0# VSUB sg13_lv_nmos ad=0.19p pd=1.38u as=0.19p ps=1.38u w=1u l=2u
X1 a_2848_0# a_2448_n36# a_2372_0# VSUB sg13_lv_nmos ad=0.19p pd=1.38u as=0.19p ps=1.38u w=1u l=2u
X2 a_1420_0# a_1020_n36# a_944_0# VSUB sg13_lv_nmos ad=0.19p pd=1.38u as=0.19p ps=1.38u w=1u l=2u
X3 a_944_0# a_544_n36# a_468_0# VSUB sg13_lv_nmos ad=0.19p pd=1.38u as=0.19p ps=1.38u w=1u l=2u
X4 a_3324_0# a_2924_n36# a_2848_0# VSUB sg13_lv_nmos ad=0.19p pd=1.38u as=0.19p ps=1.38u w=1u l=2u
X5 a_3800_0# a_3400_n36# a_3324_0# VSUB sg13_lv_nmos ad=0.34p pd=2.68u as=0.19p ps=1.38u w=1u l=2u
X6 a_468_0# a_68_n36# a_0_0# VSUB sg13_lv_nmos ad=0.19p pd=1.38u as=0.34p ps=2.68u w=1u l=2u
X7 a_1896_0# a_1496_n36# a_1420_0# VSUB sg13_lv_nmos ad=0.19p pd=1.38u as=0.19p ps=1.38u w=1u l=2u
C0 a_3400_n36# VSUB 0.52706f
C1 a_2924_n36# VSUB 0.51701f
C2 a_2448_n36# VSUB 0.51701f
C3 a_1972_n36# VSUB 0.51701f
C4 a_1496_n36# VSUB 0.51701f
C5 a_1020_n36# VSUB 0.51701f
C6 a_544_n36# VSUB 0.51701f
C7 a_68_n36# VSUB 0.52706f
.ends

.subckt pmos$1 a_944_0# a_1496_n36# a_1896_0# a_68_n36# a_3324_0# w_n62_n62# a_2372_0#
+ a_3400_n36# a_3800_0# VSUB a_2924_n36# a_1020_n36# a_2448_n36# a_468_0# a_1420_0#
+ a_0_0# a_1972_n36# a_544_n36# a_2848_0#
X0 a_2372_0# a_1972_n36# a_1896_0# w_n62_n62# sg13_lv_pmos ad=0.19p pd=1.38u as=0.19p ps=1.38u w=1u l=2u
X1 a_2848_0# a_2448_n36# a_2372_0# w_n62_n62# sg13_lv_pmos ad=0.19p pd=1.38u as=0.19p ps=1.38u w=1u l=2u
X2 a_1420_0# a_1020_n36# a_944_0# w_n62_n62# sg13_lv_pmos ad=0.19p pd=1.38u as=0.19p ps=1.38u w=1u l=2u
X3 a_3324_0# a_2924_n36# a_2848_0# w_n62_n62# sg13_lv_pmos ad=0.19p pd=1.38u as=0.19p ps=1.38u w=1u l=2u
X4 a_944_0# a_544_n36# a_468_0# w_n62_n62# sg13_lv_pmos ad=0.19p pd=1.38u as=0.19p ps=1.38u w=1u l=2u
X5 a_3800_0# a_3400_n36# a_3324_0# w_n62_n62# sg13_lv_pmos ad=0.34p pd=2.68u as=0.19p ps=1.38u w=1u l=2u
X6 a_468_0# a_68_n36# a_0_0# w_n62_n62# sg13_lv_pmos ad=0.19p pd=1.38u as=0.34p ps=2.68u w=1u l=2u
X7 a_1896_0# a_1496_n36# a_1420_0# w_n62_n62# sg13_lv_pmos ad=0.19p pd=1.38u as=0.19p ps=1.38u w=1u l=2u
C0 w_n62_n62# a_2448_n36# 0.27514f
C1 w_n62_n62# a_3400_n36# 0.27782f
C2 w_n62_n62# a_1972_n36# 0.27514f
C3 w_n62_n62# a_1496_n36# 0.27514f
C4 w_n62_n62# a_544_n36# 0.27514f
C5 w_n62_n62# a_2924_n36# 0.27514f
C6 w_n62_n62# a_68_n36# 0.27782f
C7 w_n62_n62# a_1020_n36# 0.27514f
C8 a_3400_n36# VSUB 0.24924f
C9 a_2924_n36# VSUB 0.24187f
C10 a_2448_n36# VSUB 0.24187f
C11 a_1972_n36# VSUB 0.24187f
C12 a_1496_n36# VSUB 0.24187f
C13 a_1020_n36# VSUB 0.24187f
C14 a_544_n36# VSUB 0.24187f
C15 a_68_n36# VSUB 0.24924f
.ends

.subckt nmos$4 a_2280_0# a_1300_n36# a_2632_0# a_2708_n36# a_2004_n36# a_1400_0# a_68_n36#
+ a_344_0# a_872_0# a_1652_n36# a_2356_n36# a_948_n36# a_244_n36# a_1048_0# a_520_0#
+ a_1928_0# a_1576_0# a_2532_n36# a_596_n36# a_2456_0# a_1828_n36# a_2808_0# a_1124_n36#
+ a_420_n36# a_1224_0# a_168_0# a_0_0# a_2104_0# a_1752_0# a_2180_n36# a_696_0# a_1476_n36#
+ a_772_n36#
X0 a_1576_0# a_1476_n36# a_1400_0# VSUB sg13_lv_nmos ad=0.19p pd=1.38u as=0.19p ps=1.38u w=1u l=0.5u
X1 a_2280_0# a_2180_n36# a_2104_0# VSUB sg13_lv_nmos ad=0.19p pd=1.38u as=0.19p ps=1.38u w=1u l=0.5u
X2 a_1224_0# a_1124_n36# a_1048_0# VSUB sg13_lv_nmos ad=0.19p pd=1.38u as=0.19p ps=1.38u w=1u l=0.5u
X3 a_1928_0# a_1828_n36# a_1752_0# VSUB sg13_lv_nmos ad=0.19p pd=1.38u as=0.19p ps=1.38u w=1u l=0.5u
X4 a_2632_0# a_2532_n36# a_2456_0# VSUB sg13_lv_nmos ad=0.19p pd=1.38u as=0.19p ps=1.38u w=1u l=0.5u
X5 a_872_0# a_772_n36# a_696_0# VSUB sg13_lv_nmos ad=0.19p pd=1.38u as=0.19p ps=1.38u w=1u l=0.5u
X6 a_520_0# a_420_n36# a_344_0# VSUB sg13_lv_nmos ad=0.19p pd=1.38u as=0.19p ps=1.38u w=1u l=0.5u
X7 a_696_0# a_596_n36# a_520_0# VSUB sg13_lv_nmos ad=0.19p pd=1.38u as=0.19p ps=1.38u w=1u l=0.5u
X8 a_2456_0# a_2356_n36# a_2280_0# VSUB sg13_lv_nmos ad=0.19p pd=1.38u as=0.19p ps=1.38u w=1u l=0.5u
X9 a_168_0# a_68_n36# a_0_0# VSUB sg13_lv_nmos ad=0.19p pd=1.38u as=0.34p ps=2.68u w=1u l=0.5u
X10 a_1752_0# a_1652_n36# a_1576_0# VSUB sg13_lv_nmos ad=0.19p pd=1.38u as=0.19p ps=1.38u w=1u l=0.5u
X11 a_2104_0# a_2004_n36# a_1928_0# VSUB sg13_lv_nmos ad=0.19p pd=1.38u as=0.19p ps=1.38u w=1u l=0.5u
X12 a_344_0# a_244_n36# a_168_0# VSUB sg13_lv_nmos ad=0.19p pd=1.38u as=0.19p ps=1.38u w=1u l=0.5u
X13 a_1048_0# a_948_n36# a_872_0# VSUB sg13_lv_nmos ad=0.19p pd=1.38u as=0.19p ps=1.38u w=1u l=0.5u
X14 a_1400_0# a_1300_n36# a_1224_0# VSUB sg13_lv_nmos ad=0.19p pd=1.38u as=0.19p ps=1.38u w=1u l=0.5u
X15 a_2808_0# a_2708_n36# a_2632_0# VSUB sg13_lv_nmos ad=0.34p pd=2.68u as=0.19p ps=1.38u w=1u l=0.5u
C0 a_2708_n36# VSUB 0.21509f
C1 a_2532_n36# VSUB 0.20504f
C2 a_2356_n36# VSUB 0.20504f
C3 a_2180_n36# VSUB 0.20504f
C4 a_2004_n36# VSUB 0.20504f
C5 a_1828_n36# VSUB 0.20504f
C6 a_1652_n36# VSUB 0.20504f
C7 a_1476_n36# VSUB 0.20504f
C8 a_1300_n36# VSUB 0.20504f
C9 a_1124_n36# VSUB 0.20504f
C10 a_948_n36# VSUB 0.20504f
C11 a_772_n36# VSUB 0.20504f
C12 a_596_n36# VSUB 0.20504f
C13 a_420_n36# VSUB 0.20504f
C14 a_244_n36# VSUB 0.20504f
C15 a_68_n36# VSUB 0.21509f
.ends

.subckt OTA_final ibias vinn vinp vout vdda vssa
Xnmos$2_3 vssa vssa vssa vssa nmos$2
Xnmos$2_4 vssa vssa vssa vssa nmos$2
Xnmos$2_5 vssa vssa vssa vssa nmos$2
Xnmos$2_6 vssa vssa vssa vssa nmos$2
Xnmos$2_7 vssa vssa vssa vssa nmos$2
Xpmos$2_0 vdda vdda vdda vssa vdda pmos$2
Xpmos$2_1 vdda vdda vdda vssa vdda pmos$2
Xpmos$2_2 vdda vdda vdda vssa vdda pmos$2
Xpmos$2_3 vdda vdda vdda vssa vdda pmos$2
Xpmos$2_4 vdda vdda vdda vssa vdda pmos$2
Xpmos$2_5 vdda vdda vdda vssa vdda pmos$2
Xnmos_0 vssa vssa vssa vssa vssa vssa vssa vssa vssa vssa vssa vssa vssa vssa vssa
+ vssa vssa vssa nmos
Xpmos$2_6 vdda vdda vdda vssa vdda pmos$2
Xnmos_1 vssa vssa vssa vssa vssa vssa vssa vssa vssa vssa vssa vssa vssa vssa vssa
+ vssa vssa vssa nmos
Xpmos$2_7 vdda vdda vdda vssa vdda pmos$2
Xnmos_2 vssa ibias vssa ibias w_833_2071# ibias ibias vssa vssa ibias ibias ibias
+ w_833_2071# ibias vssa ibias ibias vssa nmos
Xnmos_3 vssa ibias vssa ibias w_833_2071# ibias ibias vssa vssa ibias ibias ibias
+ w_833_2071# ibias vssa ibias ibias vssa nmos
Xpmos$1_0 vdda a_610_7243# vdda a_610_7243# vout vdda a_610_7243# a_610_7243# vdda
+ vssa a_610_7243# a_610_7243# a_610_7243# vout a_610_7243# vdda a_610_7243# a_610_7243#
+ vdda pmos$1
Xnmos$4_0 w_833_2071# w_833_2071# w_833_2071# w_833_2071# w_833_2071# w_833_2071#
+ w_833_2071# w_833_2071# w_833_2071# w_833_2071# w_833_2071# w_833_2071# w_833_2071#
+ w_833_2071# w_833_2071# w_833_2071# w_833_2071# w_833_2071# w_833_2071# w_833_2071#
+ w_833_2071# w_833_2071# w_833_2071# w_833_2071# w_833_2071# w_833_2071# w_833_2071#
+ w_833_2071# w_833_2071# w_833_2071# w_833_2071# w_833_2071# w_833_2071# nmos$4
Xpmos$1_1 vdda a_610_7243# vdda a_610_7243# vout vdda a_610_7243# a_610_7243# vdda
+ vssa a_610_7243# a_610_7243# a_610_7243# vout a_610_7243# vdda a_610_7243# a_610_7243#
+ vdda pmos$1
Xnmos$4_1 w_833_2071# w_833_2071# w_833_2071# w_833_2071# w_833_2071# w_833_2071#
+ w_833_2071# w_833_2071# w_833_2071# w_833_2071# w_833_2071# w_833_2071# w_833_2071#
+ w_833_2071# w_833_2071# w_833_2071# w_833_2071# w_833_2071# w_833_2071# w_833_2071#
+ w_833_2071# w_833_2071# w_833_2071# w_833_2071# w_833_2071# w_833_2071# w_833_2071#
+ w_833_2071# w_833_2071# w_833_2071# w_833_2071# w_833_2071# w_833_2071# nmos$4
Xpmos$1_2 vdda vdda vdda vdda vdda vdda vdda vdda vdda vssa vdda vdda vdda vdda vdda
+ vdda vdda vdda vdda pmos$1
Xnmos$4_2 a_610_7243# vinn a_610_7243# vinp vinp w_833_2071# vinn w_833_2071# vout
+ vinp vinp vinn vinn w_833_2071# vout a_610_7243# a_610_7243# vinp vinn w_833_2071#
+ vinp w_833_2071# vinn vinn vout vout w_833_2071# w_833_2071# w_833_2071# vinp w_833_2071#
+ vinp vinn nmos$4
Xpmos$1_3 vdda vdda vdda vdda vdda vdda vdda vdda vdda vssa vdda vdda vdda vdda vdda
+ vdda vdda vdda vdda pmos$1
Xnmos$4_3 vout vinp vout vinn vinn w_833_2071# vinp w_833_2071# a_610_7243# vinn vinn
+ vinp vinp w_833_2071# a_610_7243# vout vout vinn vinp w_833_2071# vinn w_833_2071#
+ vinp vinp a_610_7243# a_610_7243# w_833_2071# w_833_2071# w_833_2071# vinn w_833_2071#
+ vinn vinp nmos$4
Xnmos$2_0 vssa vssa vssa vssa nmos$2
Xnmos$4_4 a_610_7243# vinn a_610_7243# vinp vinp w_833_2071# vinn w_833_2071# vout
+ vinp vinp vinn vinn w_833_2071# vout a_610_7243# a_610_7243# vinp vinn w_833_2071#
+ vinp w_833_2071# vinn vinn vout vout w_833_2071# w_833_2071# w_833_2071# vinp w_833_2071#
+ vinp vinn nmos$4
Xnmos$2_1 vssa vssa vssa vssa nmos$2
Xnmos$4_5 vout vinp vout vinn vinn w_833_2071# vinp w_833_2071# a_610_7243# vinn vinn
+ vinp vinp w_833_2071# a_610_7243# vout vout vinn vinp w_833_2071# vinn w_833_2071#
+ vinp vinp a_610_7243# a_610_7243# w_833_2071# w_833_2071# w_833_2071# vinn w_833_2071#
+ vinn vinp nmos$4
Xnmos$2_2 vssa vssa vssa vssa nmos$2
X0 w_833_2071# ibias.t17 vssa vssa sg13_lv_nmos ad=0.19p pd=1.38u as=0.19p ps=1.38u w=0 l=0
X1 vdda.t45 vdda.t43 vdda.t2 vdda.t1 sg13_lv_pmos ad=0.34p pd=2.68u as=0.34p ps=2.68u w=0 l=0
X2 w_833_2071# ibias.t19 vssa vssa sg13_lv_nmos ad=0.19p pd=1.38u as=0.34p ps=2.68u w=0 l=0
X3 vdda.t51 vdda.t49 vdda.t50 vdda.t1 sg13_lv_pmos ad=0.34p pd=2.68u as=0.34p ps=2.68u w=0 l=0
X4 vssa.t49 vssa.t46 vssa.t48 vssa.t47 sg13_lv_nmos ad=0.34p pd=2.68u as=0.34p ps=2.68u w=0 l=0
X5 ibias.t10 ibias.t11 vssa vssa sg13_lv_nmos ad=0.19p pd=1.38u as=0.19p ps=1.38u w=0 l=0
X6 vdda.t18 vdda.t19 vdda.t18 vdda.t1 sg13_lv_pmos ad=0.19p pd=1.38u as=0.34p ps=2.68u w=0 l=0
X7 vssa.t28 vssa.t26 vssa.t27 vssa.t1 sg13_lv_nmos ad=0.19p pd=1.38u as=0.19p ps=1.38u w=0 l=0
X8 vssa ibias.t16 w_833_2071# vssa sg13_lv_nmos ad=0.19p pd=1.38u as=0.19p ps=1.38u w=0 l=0
X9 vdda.t2 vdda.t5 vdda.t2 vdda.t1 sg13_lv_pmos ad=0.34p pd=2.68u as=0.19p ps=1.38u w=0 l=0
X10 vssa.t9 vssa.t24 vssa.t9 vssa.t8 sg13_lv_nmos ad=0.19p pd=1.38u as=0.19p ps=1.38u w=0 l=0
X11 vssa ibias.t9 ibias.t10 vssa sg13_lv_nmos ad=0.19p pd=1.38u as=0.19p ps=1.38u w=0 l=0
X12 vdda.t2 vdda.t0 vdda.t2 vdda.t1 sg13_lv_pmos ad=0.19p pd=1.38u as=0.19p ps=1.38u w=0 l=0
X13 vssa.t2 vssa.t0 vssa.t2 vssa.t1 sg13_lv_nmos ad=0.34p pd=2.68u as=0.34p ps=2.68u w=0 l=0
X14 vssa.t9 vssa.t7 vssa.t9 vssa.t8 sg13_lv_nmos ad=0.34p pd=2.68u as=0.34p ps=2.68u w=0 l=0
X15 vdda.t48 vdda.t46 vdda.t18 vdda.t1 sg13_lv_pmos ad=0.34p pd=2.68u as=0.34p ps=2.68u w=0 l=0
X16 vssa.t43 vssa.t44 vssa.t28 vssa.t1 sg13_lv_nmos ad=0.19p pd=1.38u as=0.19p ps=1.38u w=0 l=0
X17 vssa.t9 vssa.t12 vssa.t9 vssa.t8 sg13_lv_nmos ad=0.19p pd=1.38u as=0.34p ps=2.68u w=0 l=0
X18 w_833_2071# ibias.t13 vssa vssa sg13_lv_nmos ad=0.19p pd=1.38u as=0.19p ps=1.38u w=0 l=0
X19 vdda.t2 vdda.t13 vdda.t2 vdda.t1 sg13_lv_pmos ad=0.19p pd=1.38u as=0.19p ps=1.38u w=0 l=0
X20 vssa.t9 vssa.t20 vssa.t9 vssa.t8 sg13_lv_nmos ad=0.19p pd=1.38u as=0.19p ps=1.38u w=0 l=0
X21 w_833_2071# ibias.t15 vssa vssa sg13_lv_nmos ad=0.19p pd=1.38u as=0.34p ps=2.68u w=0 l=0
X22 vssa ibias.t18 w_833_2071# vssa sg13_lv_nmos ad=0.34p pd=2.68u as=0.19p ps=1.38u w=0 l=0
X23 vdda.t2 vdda.t7 vdda.t2 vdda.t1 sg13_lv_pmos ad=0.19p pd=1.38u as=0.19p ps=1.38u w=0 l=0
X24 vssa.t9 vssa.t16 vssa.t9 vssa.t8 sg13_lv_nmos ad=0.19p pd=1.38u as=0.19p ps=1.38u w=0 l=0
X25 vssa.t55 vssa.t53 vssa.t54 vssa.t4 sg13_lv_nmos ad=0.34p pd=2.68u as=0.34p ps=2.68u w=0 l=0
X26 vssa.t39 vssa.t37 vssa.t31 vssa.t1 sg13_lv_nmos ad=0.19p pd=1.38u as=0.19p ps=1.38u w=0 l=0
X27 vdda.t18 vdda.t21 vdda.t18 vdda.t1 sg13_lv_pmos ad=0.34p pd=2.68u as=0.19p ps=1.38u w=0 l=0
X28 vssa.t61 vssa.t59 vssa.t60 vssa.t47 sg13_lv_nmos ad=0.34p pd=2.68u as=0.34p ps=2.68u w=0 l=0
X29 vssa ibias.t12 w_833_2071# vssa sg13_lv_nmos ad=0.19p pd=1.38u as=0.19p ps=1.38u w=0 l=0
X30 vdda.t18 vdda.t17 vdda.t18 vdda.t1 sg13_lv_pmos ad=0.19p pd=1.38u as=0.19p ps=1.38u w=0 l=0
X31 vssa.t36 vssa.t42 vssa.t43 vssa.t1 sg13_lv_nmos ad=0.19p pd=1.38u as=0.19p ps=1.38u w=0 l=0
X32 vssa.t31 vssa.t29 vssa.t30 vssa.t1 sg13_lv_nmos ad=0.19p pd=1.38u as=0.34p ps=2.68u w=0 l=0
X33 ibias.t1 ibias.t2 vssa vssa sg13_lv_nmos ad=0.19p pd=1.38u as=0.19p ps=1.38u w=0 l=0
X34 vdda.t18 vdda.t29 vdda.t18 vdda.t1 sg13_lv_pmos ad=0.19p pd=1.38u as=0.19p ps=1.38u w=0 l=0
X35 vdda.t18 vdda.t23 vdda.t18 vdda.t1 sg13_lv_pmos ad=0.19p pd=1.38u as=0.19p ps=1.38u w=0 l=0
X36 vdda.t42 vdda.t40 vdda.t41 vdda.t1 sg13_lv_pmos ad=0.34p pd=2.68u as=0.34p ps=2.68u w=0 l=0
X37 vssa ibias.t14 w_833_2071# vssa sg13_lv_nmos ad=0.34p pd=2.68u as=0.19p ps=1.38u w=0 l=0
X38 vssa.t9 vssa.t22 vssa.t9 vssa.t8 sg13_lv_nmos ad=0.19p pd=1.38u as=0.19p ps=1.38u w=0 l=0
X39 vssa ibias.t0 ibias.t1 vssa sg13_lv_nmos ad=0.19p pd=1.38u as=0.19p ps=1.38u w=0 l=0
X40 vssa.t58 vssa.t56 vssa.t9 vssa.t8 sg13_lv_nmos ad=0.34p pd=2.68u as=0.34p ps=2.68u w=0 l=0
X41 vdda.t2 vdda.t15 vdda.t2 vdda.t1 sg13_lv_pmos ad=0.19p pd=1.38u as=0.19p ps=1.38u w=0 l=0
X42 vssa.t34 vssa.t35 vssa.t36 vssa.t1 sg13_lv_nmos ad=0.19p pd=1.38u as=0.19p ps=1.38u w=0 l=0
X43 vdda.t2 vdda.t33 vdda.t2 vdda.t1 sg13_lv_pmos ad=0.34p pd=2.68u as=0.34p ps=2.68u w=0 l=0
X44 vssa.t6 vssa.t3 vssa.t5 vssa.t4 sg13_lv_nmos ad=0.34p pd=2.68u as=0.34p ps=2.68u w=0 l=0
X45 vdda.t39 vdda.t37 vdda.t38 vdda.t1 sg13_lv_pmos ad=0.34p pd=2.68u as=0.34p ps=2.68u w=0 l=0
X46 vssa.t52 vssa.t50 vssa.t30 vssa.t1 sg13_lv_nmos ad=0.34p pd=2.68u as=0.34p ps=2.68u w=0 l=0
X47 vdda.t2 vdda.t11 vdda.t2 vdda.t1 sg13_lv_pmos ad=0.19p pd=1.38u as=0.19p ps=1.38u w=0 l=0
X48 vssa.t9 vssa.t14 vssa.t9 vssa.t8 sg13_lv_nmos ad=0.34p pd=2.68u as=0.19p ps=1.38u w=0 l=0
X49 ibias.t7 ibias.t8 vssa vssa sg13_lv_nmos ad=0.19p pd=1.38u as=0.19p ps=1.38u w=0 l=0
X50 vdda.t2 vdda.t9 vdda.t2 vdda.t1 sg13_lv_pmos ad=0.19p pd=1.38u as=0.19p ps=1.38u w=0 l=0
X51 vssa.t9 vssa.t10 vssa.t9 vssa.t8 sg13_lv_nmos ad=0.19p pd=1.38u as=0.19p ps=1.38u w=0 l=0
X52 vssa ibias.t6 ibias.t7 vssa sg13_lv_nmos ad=0.19p pd=1.38u as=0.19p ps=1.38u w=0 l=0
X53 vdda.t18 vdda.t31 vdda.t18 vdda.t1 sg13_lv_pmos ad=0.19p pd=1.38u as=0.19p ps=1.38u w=0 l=0
X54 vdda.t18 vdda.t35 vdda.t18 vdda.t1 sg13_lv_pmos ad=0.34p pd=2.68u as=0.34p ps=2.68u w=0 l=0
X55 vssa.t9 vssa.t18 vssa.t9 vssa.t8 sg13_lv_nmos ad=0.19p pd=1.38u as=0.19p ps=1.38u w=0 l=0
X56 ibias.t4 ibias.t5 vssa vssa sg13_lv_nmos ad=0.19p pd=1.38u as=0.19p ps=1.38u w=0 l=0
X57 vdda.t54 vdda.t52 vdda.t53 vdda.t1 sg13_lv_pmos ad=0.34p pd=2.68u as=0.34p ps=2.68u w=0 l=0
X58 vdda.t18 vdda.t27 vdda.t18 vdda.t1 sg13_lv_pmos ad=0.19p pd=1.38u as=0.19p ps=1.38u w=0 l=0
X59 vdda.t2 vdda.t3 vdda.t2 vdda.t1 sg13_lv_pmos ad=0.19p pd=1.38u as=0.34p ps=2.68u w=0 l=0
X60 vssa.t27 vssa.t40 vssa.t39 vssa.t1 sg13_lv_nmos ad=0.19p pd=1.38u as=0.19p ps=1.38u w=0 l=0
X61 vssa ibias.t3 ibias.t4 vssa sg13_lv_nmos ad=0.19p pd=1.38u as=0.19p ps=1.38u w=0 l=0
X62 vdda.t18 vdda.t25 vdda.t18 vdda.t1 sg13_lv_pmos ad=0.19p pd=1.38u as=0.19p ps=1.38u w=0 l=0
X63 vssa.t34 vssa.t32 vssa.t2 vssa.t1 sg13_lv_nmos ad=0.34p pd=2.68u as=0.19p ps=1.38u w=0 l=0
R0 vssa.n132 vssa.t47 135.06
R1 vssa.t4 vssa.n130 127.76
R2 vssa.n131 vssa.t1 105.859
R3 vssa.n130 vssa.t8 101.686
R4 vssa.n132 vssa.t4 101.165
R5 vssa.t47 vssa.n131 101.165
R6 vssa.n207 vssa.t1 26.0739
R7 vssa.t2 vssa.n35 17.1548
R8 vssa.n220 vssa.n0 17.0201
R9 vssa.t9 vssa.n76 17.0005
R10 vssa.n143 vssa.n42 17.0005
R11 vssa.n129 vssa.n128 17.0005
R12 vssa.n217 vssa.n1 17.0005
R13 vssa.n208 vssa.n207 17.0005
R14 vssa.n207 vssa.n31 17.0005
R15 vssa.n207 vssa.n30 17.0005
R16 vssa.n207 vssa.n32 17.0005
R17 vssa.n207 vssa.n29 17.0005
R18 vssa.n207 vssa.n33 17.0005
R19 vssa.n141 vssa.t60 17.0005
R20 vssa.t5 vssa.n72 17.0005
R21 vssa.n133 vssa.n54 17.0005
R22 vssa.n151 vssa.t52 8.81404
R23 vssa.n153 vssa.t30 8.81404
R24 vssa.n155 vssa.t31 8.81404
R25 vssa.n157 vssa.t39 8.81404
R26 vssa.n159 vssa.t27 8.81404
R27 vssa.n161 vssa.t28 8.81404
R28 vssa.n163 vssa.t43 8.81404
R29 vssa.n165 vssa.t36 8.81404
R30 vssa.n211 vssa.n0 8.501
R31 vssa.n211 vssa.n5 8.501
R32 vssa.n212 vssa.n211 8.501
R33 vssa.n211 vssa.n210 8.501
R34 vssa.n211 vssa.n22 8.501
R35 vssa.n211 vssa.n23 8.501
R36 vssa.n211 vssa.n209 8.501
R37 vssa.n211 vssa.n19 8.501
R38 vssa.n211 vssa.n20 8.501
R39 vssa.n211 vssa.n21 8.501
R40 vssa.n211 vssa.n16 8.501
R41 vssa.n211 vssa.n17 8.501
R42 vssa.n211 vssa.n18 8.501
R43 vssa.n211 vssa.n13 8.501
R44 vssa.n211 vssa.n14 8.501
R45 vssa.n211 vssa.n15 8.501
R46 vssa.n211 vssa.n10 8.501
R47 vssa.n211 vssa.n11 8.501
R48 vssa.n211 vssa.n12 8.501
R49 vssa.n211 vssa.n7 8.501
R50 vssa.n211 vssa.n8 8.501
R51 vssa.n211 vssa.n9 8.501
R52 vssa.n207 vssa.n25 8.501
R53 vssa.n207 vssa.n26 8.501
R54 vssa.n207 vssa.n27 8.501
R55 vssa.n125 vssa.t9 8.49776
R56 vssa.n214 vssa.n213 8.47514
R57 vssa.n181 vssa.n179 8.47514
R58 vssa.n180 vssa.n24 8.47514
R59 vssa.n184 vssa.n177 8.47514
R60 vssa.n183 vssa.n178 8.47514
R61 vssa.n187 vssa.n175 8.47514
R62 vssa.n186 vssa.n176 8.47514
R63 vssa.n190 vssa.n173 8.47514
R64 vssa.n189 vssa.n174 8.47514
R65 vssa.n193 vssa.n171 8.47514
R66 vssa.n192 vssa.n172 8.47514
R67 vssa.n196 vssa.n169 8.47514
R68 vssa.n195 vssa.n170 8.47514
R69 vssa.n215 vssa.n3 8.47334
R70 vssa.n206 vssa.n205 8.47045
R71 vssa.n204 vssa.n34 8.46995
R72 vssa.n202 vssa.n37 8.46995
R73 vssa.n201 vssa.n38 8.46995
R74 vssa.n200 vssa.n39 8.46995
R75 vssa.n45 vssa.t2 8.38237
R76 vssa.t60 vssa.n140 8.38237
R77 vssa.n73 vssa.t5 8.38237
R78 vssa.n6 vssa.n1 7.89559
R79 vssa.n207 vssa.n28 5.66778
R80 vssa.n207 vssa.n206 5.66767
R81 vssa.n208 vssa.n4 5.61671
R82 vssa.n182 vssa.n31 5.61671
R83 vssa.n185 vssa.n30 5.61671
R84 vssa.n188 vssa.n32 5.61671
R85 vssa.n191 vssa.n29 5.61671
R86 vssa.n194 vssa.n33 5.61671
R87 vssa.n198 vssa.n197 5.613
R88 vssa.n145 vssa.n42 5.61281
R89 vssa.n129 vssa.n58 5.61281
R90 vssa.n134 vssa.n133 5.61281
R91 vssa.n219 vssa.n1 5.61127
R92 vssa.n98 vssa.t55 5.56245
R93 vssa.n104 vssa.t58 5.56245
R94 vssa.t9 vssa.n81 5.56245
R95 vssa.t9 vssa.n83 5.56245
R96 vssa.t9 vssa.n85 5.56245
R97 vssa.t9 vssa.n87 5.56245
R98 vssa.t9 vssa.n89 5.56245
R99 vssa.t9 vssa.n91 5.56245
R100 vssa.t9 vssa.n93 5.56245
R101 vssa.t9 vssa.n124 5.56245
R102 vssa.t9 vssa.n79 5.56245
R103 vssa.n168 vssa.t34 5.56245
R104 vssa.t2 vssa.n36 5.56245
R105 vssa.n43 vssa.t61 5.56245
R106 vssa.n41 vssa.t49 5.56245
R107 vssa.n94 vssa.t48 5.56245
R108 vssa.n69 vssa.t6 5.56245
R109 vssa.n100 vssa.t54 5.56245
R110 vssa.n101 vssa.t53 4.89895
R111 vssa.n77 vssa.t7 4.89895
R112 vssa.n105 vssa.t56 4.89895
R113 vssa.n48 vssa.t0 4.89895
R114 vssa.n152 vssa.t50 4.89895
R115 vssa.n137 vssa.t59 4.89895
R116 vssa.n95 vssa.t46 4.89895
R117 vssa.n70 vssa.t3 4.89895
R118 vssa.n149 vssa.n42 3.30365
R119 vssa.n129 vssa.n63 3.30365
R120 vssa.n133 vssa.n56 3.30365
R121 vssa.n121 vssa.t14 2.82253
R122 vssa.n119 vssa.t16 2.82253
R123 vssa.n117 vssa.t22 2.82253
R124 vssa.n115 vssa.t24 2.82253
R125 vssa.n113 vssa.t10 2.82253
R126 vssa.n111 vssa.t20 2.82253
R127 vssa.n109 vssa.t18 2.82253
R128 vssa.n107 vssa.t12 2.82253
R129 vssa.n40 vssa.t32 2.82253
R130 vssa.n166 vssa.t35 2.82218
R131 vssa.n164 vssa.t42 2.82218
R132 vssa.n162 vssa.t44 2.82218
R133 vssa.n160 vssa.t26 2.82218
R134 vssa.n158 vssa.t40 2.82218
R135 vssa.n156 vssa.t37 2.82218
R136 vssa.n154 vssa.t29 2.82218
R137 vssa.n129 vssa.n62 2.29333
R138 vssa.n129 vssa.n64 2.29333
R139 vssa.n129 vssa.n61 2.29333
R140 vssa.n129 vssa.n65 2.29333
R141 vssa.n129 vssa.n60 2.29333
R142 vssa.n129 vssa.n66 2.29333
R143 vssa.n129 vssa.n59 2.29333
R144 vssa.n129 vssa.n67 2.29333
R145 vssa.n148 vssa.n147 1.53981
R146 vssa.n99 vssa.n57 1.53981
R147 vssa vssa.n220 1.45442
R148 vssa.n147 vssa.n146 1.37209
R149 vssa.n57 vssa.n55 1.37209
R150 vssa.n211 vssa.n6 1.21181
R151 vssa.n207 vssa.n6 1.21181
R152 vssa.n127 vssa.n126 1.073
R153 vssa.n138 vssa.n44 1.073
R154 vssa.n49 vssa.n46 1.073
R155 vssa.n71 vssa.n53 1.073
R156 vssa.n144 vssa.n44 1.06612
R157 vssa.n135 vssa.n53 1.06612
R158 vssa.n137 vssa.n43 0.975229
R159 vssa.n70 vssa.n69 0.975229
R160 vssa.n101 vssa.n100 0.974882
R161 vssa.n105 vssa.n104 0.974882
R162 vssa.n95 vssa.n94 0.974882
R163 vssa.n125 vssa.n77 0.856338
R164 vssa.n74 vssa.n73 0.841843
R165 vssa.n50 vssa.n45 0.841555
R166 vssa.n140 vssa.n139 0.841555
R167 vssa.n121 vssa.n120 0.803704
R168 vssa.n119 vssa.n118 0.803704
R169 vssa.n117 vssa.n116 0.803704
R170 vssa.n115 vssa.n114 0.803704
R171 vssa.n113 vssa.n112 0.803704
R172 vssa.n111 vssa.n110 0.803704
R173 vssa.n109 vssa.n108 0.803704
R174 vssa.n107 vssa.n106 0.803704
R175 vssa.n167 vssa.n40 0.803704
R176 vssa.n167 vssa.n166 0.803052
R177 vssa.n165 vssa.n164 0.803052
R178 vssa.n163 vssa.n162 0.803052
R179 vssa.n161 vssa.n160 0.803052
R180 vssa.n159 vssa.n158 0.803052
R181 vssa.n157 vssa.n156 0.803052
R182 vssa.n155 vssa.n154 0.803052
R183 vssa.n166 vssa.n165 0.803031
R184 vssa.n164 vssa.n163 0.803031
R185 vssa.n162 vssa.n161 0.803031
R186 vssa.n160 vssa.n159 0.803031
R187 vssa.n158 vssa.n157 0.803031
R188 vssa.n156 vssa.n155 0.803031
R189 vssa.n154 vssa.n153 0.803031
R190 vssa.n122 vssa.n121 0.802423
R191 vssa.n120 vssa.n119 0.802423
R192 vssa.n118 vssa.n117 0.802423
R193 vssa.n116 vssa.n115 0.802423
R194 vssa.n114 vssa.n113 0.802423
R195 vssa.n112 vssa.n111 0.802423
R196 vssa.n110 vssa.n109 0.802423
R197 vssa.n108 vssa.n107 0.802423
R198 vssa.n47 vssa.n40 0.802423
R199 vssa.n76 vssa.n68 0.763625
R200 vssa.n142 vssa.n141 0.75675
R201 vssa.n72 vssa.n52 0.75675
R202 vssa.n205 vssa.n35 0.571828
R203 vssa.n104 vssa.n103 0.565495
R204 vssa.n81 vssa.n80 0.565149
R205 vssa.n83 vssa.n82 0.565149
R206 vssa.n85 vssa.n84 0.565149
R207 vssa.n87 vssa.n86 0.565149
R208 vssa.n89 vssa.n88 0.565149
R209 vssa.n91 vssa.n90 0.565149
R210 vssa.n93 vssa.n92 0.565149
R211 vssa.n124 vssa.n123 0.565149
R212 vssa.n98 vssa.n97 0.562058
R213 vssa.n199 vssa.n168 0.562058
R214 vssa.n203 vssa.n36 0.562058
R215 vssa.n146 vssa.n43 0.562058
R216 vssa.n150 vssa.n41 0.562058
R217 vssa.n69 vssa.n55 0.562058
R218 vssa.n108 vssa.n81 0.50362
R219 vssa.n110 vssa.n83 0.50362
R220 vssa.n112 vssa.n85 0.50362
R221 vssa.n114 vssa.n87 0.50362
R222 vssa.n116 vssa.n89 0.50362
R223 vssa.n118 vssa.n91 0.50362
R224 vssa.n120 vssa.n93 0.50362
R225 vssa.n124 vssa.n122 0.50362
R226 vssa.n106 vssa.n79 0.50362
R227 vssa.n102 vssa.n98 0.503274
R228 vssa.n168 vssa.n167 0.503274
R229 vssa.n47 vssa.n36 0.503274
R230 vssa.n96 vssa.n41 0.503274
R231 vssa.n94 vssa 0.500183
R232 vssa.n79 vssa 0.499837
R233 vssa.n92 vssa.n67 0.49086
R234 vssa.n90 vssa.n59 0.49086
R235 vssa.n88 vssa.n66 0.49086
R236 vssa.n86 vssa.n60 0.49086
R237 vssa.n84 vssa.n65 0.49086
R238 vssa.n82 vssa.n61 0.49086
R239 vssa.n80 vssa.n64 0.49086
R240 vssa.n78 vssa.n62 0.49086
R241 vssa.n102 vssa.n101 0.472454
R242 vssa.n122 vssa.n77 0.472454
R243 vssa.n106 vssa.n105 0.472454
R244 vssa.n48 vssa.n47 0.472454
R245 vssa.n152 vssa.n151 0.472454
R246 vssa.n96 vssa.n95 0.472454
R247 vssa.n153 vssa.n152 0.472107
R248 vssa.n49 vssa.n48 0.444607
R249 vssa.n138 vssa.n137 0.444607
R250 vssa.n71 vssa.n70 0.444607
R251 vssa.n100 vssa 0.431433
R252 vssa.n126 vssa.n76 0.419875
R253 vssa.n141 vssa.n44 0.419875
R254 vssa.n72 vssa.n53 0.419875
R255 vssa.n123 vssa.n67 0.363944
R256 vssa.n92 vssa.n59 0.363944
R257 vssa.n90 vssa.n66 0.363944
R258 vssa.n88 vssa.n60 0.363944
R259 vssa.n86 vssa.n65 0.363944
R260 vssa.n84 vssa.n61 0.363944
R261 vssa.n82 vssa.n64 0.363944
R262 vssa.n80 vssa.n62 0.363944
R263 vssa.n198 vssa.n196 0.340158
R264 vssa.n214 vssa.n4 0.337737
R265 vssa.n182 vssa.n181 0.337737
R266 vssa.n185 vssa.n184 0.337737
R267 vssa.n188 vssa.n187 0.337737
R268 vssa.n191 vssa.n190 0.337737
R269 vssa.n194 vssa.n193 0.337737
R270 vssa.n180 vssa.n4 0.308073
R271 vssa.n183 vssa.n182 0.308073
R272 vssa.n186 vssa.n185 0.308073
R273 vssa.n189 vssa.n188 0.308073
R274 vssa.n192 vssa.n191 0.308073
R275 vssa.n195 vssa.n194 0.308073
R276 vssa.n46 vssa.n45 0.300142
R277 vssa.n140 vssa.n44 0.300142
R278 vssa.n73 vssa.n53 0.300142
R279 vssa.n142 vssa.n51 0.282375
R280 vssa.n136 vssa.n52 0.282375
R281 vssa.n215 vssa.n214 0.282373
R282 vssa.n181 vssa.n180 0.28016
R283 vssa.n184 vssa.n183 0.28016
R284 vssa.n187 vssa.n186 0.28016
R285 vssa.n190 vssa.n189 0.28016
R286 vssa.n193 vssa.n192 0.28016
R287 vssa.n196 vssa.n195 0.28016
R288 vssa.n131 vssa.n42 0.262038
R289 vssa.n130 vssa.n129 0.262038
R290 vssa.n133 vssa.n132 0.262038
R291 vssa.n78 vssa.n63 0.254033
R292 vssa.n149 vssa.n148 0.254033
R293 vssa.n99 vssa.n56 0.254033
R294 vssa.n220 vssa.n219 0.253968
R295 vssa.n216 vssa.n2 0.251929
R296 vssa.n205 vssa.n204 0.250378
R297 vssa.n202 vssa.n201 0.250378
R298 vssa.n201 vssa.n200 0.250378
R299 vssa.n123 vssa.n58 0.250092
R300 vssa.n146 vssa.n145 0.250092
R301 vssa.n134 vssa.n55 0.250092
R302 vssa.n150 vssa.n149 0.247939
R303 vssa.n103 vssa.n63 0.247939
R304 vssa.n97 vssa.n56 0.247939
R305 vssa.n127 vssa.n58 0.242419
R306 vssa.n145 vssa.n144 0.242419
R307 vssa.n135 vssa.n134 0.242419
R308 vssa.n75 vssa.n68 0.23425
R309 vssa.n219 vssa.n218 0.229349
R310 vssa.n46 vssa.n35 0.19155
R311 vssa.n203 vssa.n202 0.187772
R312 vssa.n200 vssa.n199 0.187772
R313 vssa.n151 vssa.n150 0.172375
R314 vssa.n144 vssa.n51 0.172375
R315 vssa.n97 vssa.n96 0.172375
R316 vssa.n136 vssa.n135 0.172375
R317 vssa.n218 vssa.n2 0.157643
R318 vssa.n126 vssa.n125 0.145405
R319 vssa.n216 vssa.n215 0.141889
R320 vssa vssa.n99 0.131125
R321 vssa.n199 vssa.n198 0.126601
R322 vssa.n103 vssa.n102 0.12425
R323 vssa.n127 vssa.n75 0.12425
R324 vssa.n217 vssa.n216 0.097215
R325 vssa.n51 vssa.n50 0.0931675
R326 vssa.n139 vssa.n136 0.0931675
R327 vssa.n75 vssa.n74 0.0686545
R328 vssa vssa.n78 0.0658125
R329 vssa.n204 vssa.n203 0.0631056
R330 vssa.n2 vssa 0.062375
R331 vssa.n148 vssa 0.062375
R332 vssa.n218 vssa.n217 0.0493889
R333 vssa.n147 vssa.n42 0.0302416
R334 vssa.n133 vssa.n57 0.0302416
R335 vssa.n50 vssa.n49 0.0119941
R336 vssa.n139 vssa.n138 0.0119941
R337 vssa.n74 vssa.n71 0.0111992
R338 vssa.n128 vssa.n68 0.00783333
R339 vssa.n128 vssa.n127 0.00783333
R340 vssa.n143 vssa.n142 0.00783333
R341 vssa.n144 vssa.n143 0.00783333
R342 vssa.n54 vssa.n52 0.00783333
R343 vssa.n135 vssa.n54 0.00783333
R344 vssa.n39 vssa.n28 0.00166667
R345 vssa.n197 vssa.n28 0.00133332
R346 vssa.n206 vssa.n34 0.001
R347 vssa.n34 vssa.n25 0.001
R348 vssa.n37 vssa.n26 0.001
R349 vssa.n38 vssa.n27 0.001
R350 vssa.n197 vssa.n7 0.001
R351 vssa.n169 vssa.n8 0.001
R352 vssa.n170 vssa.n9 0.001
R353 vssa.n33 vssa.n10 0.001
R354 vssa.n171 vssa.n11 0.001
R355 vssa.n172 vssa.n12 0.001
R356 vssa.n29 vssa.n13 0.001
R357 vssa.n173 vssa.n14 0.001
R358 vssa.n174 vssa.n15 0.001
R359 vssa.n32 vssa.n16 0.001
R360 vssa.n175 vssa.n17 0.001
R361 vssa.n176 vssa.n18 0.001
R362 vssa.n30 vssa.n19 0.001
R363 vssa.n177 vssa.n20 0.001
R364 vssa.n178 vssa.n21 0.001
R365 vssa.n31 vssa.n22 0.001
R366 vssa.n179 vssa.n23 0.001
R367 vssa.n209 vssa.n24 0.001
R368 vssa.n208 vssa.n5 0.001
R369 vssa.n213 vssa.n212 0.001
R370 vssa.n210 vssa.n3 0.001
R371 vssa.n1 vssa.n0 0.001
R372 vssa.n210 vssa.n1 0.001
R373 vssa.n213 vssa.n5 0.001
R374 vssa.n212 vssa.n3 0.001
R375 vssa.n179 vssa.n22 0.001
R376 vssa.n24 vssa.n23 0.001
R377 vssa.n209 vssa.n208 0.001
R378 vssa.n177 vssa.n19 0.001
R379 vssa.n178 vssa.n20 0.001
R380 vssa.n31 vssa.n21 0.001
R381 vssa.n175 vssa.n16 0.001
R382 vssa.n176 vssa.n17 0.001
R383 vssa.n30 vssa.n18 0.001
R384 vssa.n173 vssa.n13 0.001
R385 vssa.n174 vssa.n14 0.001
R386 vssa.n32 vssa.n15 0.001
R387 vssa.n171 vssa.n10 0.001
R388 vssa.n172 vssa.n11 0.001
R389 vssa.n29 vssa.n12 0.001
R390 vssa.n169 vssa.n7 0.001
R391 vssa.n170 vssa.n8 0.001
R392 vssa.n33 vssa.n9 0.001
R393 vssa.n37 vssa.n25 0.001
R394 vssa.n38 vssa.n26 0.001
R395 vssa.n39 vssa.n27 0.001
R396 vdda.n447 vdda.n12 17.0005
R397 vdda.n447 vdda.n26 17.0005
R398 vdda.n448 vdda.n447 17.0005
R399 vdda.n447 vdda.n32 17.0005
R400 vdda.n447 vdda.n28 17.0005
R401 vdda.n447 vdda.n29 17.0005
R402 vdda.n308 vdda.n307 17.0005
R403 vdda.n309 vdda.n308 17.0005
R404 vdda.n365 vdda.n364 17.0005
R405 vdda.n364 vdda.n299 17.0005
R406 vdda.n372 vdda.n297 17.0005
R407 vdda.n372 vdda.n371 17.0005
R408 vdda.n442 vdda.n441 17.0005
R409 vdda.n441 vdda.n94 17.0005
R410 vdda.n294 vdda.n189 17.0005
R411 vdda.n294 vdda.n293 17.0005
R412 vdda.n285 vdda.n284 17.0005
R413 vdda.n284 vdda.n283 17.0005
R414 vdda.n275 vdda.n274 17.0005
R415 vdda.n274 vdda.n273 17.0005
R416 vdda.n265 vdda.n264 17.0005
R417 vdda.n264 vdda.n263 17.0005
R418 vdda.n255 vdda.n254 17.0005
R419 vdda.n254 vdda.n253 17.0005
R420 vdda.n251 vdda.n5 17.0005
R421 vdda.n6 vdda.n5 17.0005
R422 vdda.t1 vdda.n98 8.501
R423 vdda.t1 vdda.n101 8.501
R424 vdda.t1 vdda.n104 8.501
R425 vdda.t1 vdda.n107 8.501
R426 vdda.t1 vdda.n111 8.501
R427 vdda.t1 vdda.n114 8.501
R428 vdda.t1 vdda.n117 8.501
R429 vdda.t1 vdda.n120 8.501
R430 vdda.t1 vdda.n123 8.501
R431 vdda.t1 vdda.n126 8.501
R432 vdda.t1 vdda.n129 8.501
R433 vdda.t1 vdda.n132 8.501
R434 vdda.t1 vdda.n135 8.501
R435 vdda.t1 vdda.n138 8.501
R436 vdda.t1 vdda.n141 8.501
R437 vdda.t1 vdda.n144 8.501
R438 vdda.t1 vdda.n147 8.501
R439 vdda.t1 vdda.n150 8.501
R440 vdda.t1 vdda.n153 8.501
R441 vdda.t1 vdda.n156 8.501
R442 vdda.t1 vdda.n159 8.501
R443 vdda.t1 vdda.n162 8.501
R444 vdda.t1 vdda.n165 8.501
R445 vdda.t1 vdda.n168 8.501
R446 vdda.t1 vdda.n171 8.501
R447 vdda.t1 vdda.n174 8.501
R448 vdda.t1 vdda.n177 8.501
R449 vdda.t1 vdda.n180 8.501
R450 vdda.t1 vdda.n183 8.501
R451 vdda.t1 vdda.n186 8.501
R452 vdda.t1 vdda.n373 8.501
R453 vdda.t1 vdda.n376 8.501
R454 vdda.t1 vdda.n377 8.501
R455 vdda.t1 vdda.n87 8.501
R456 vdda.n440 vdda.t1 8.501
R457 vdda.t1 vdda.n295 8.501
R458 vdda.t1 vdda.n185 8.501
R459 vdda.t1 vdda.n182 8.501
R460 vdda.t1 vdda.n179 8.501
R461 vdda.t1 vdda.n176 8.501
R462 vdda.t1 vdda.n173 8.501
R463 vdda.t1 vdda.n170 8.501
R464 vdda.t1 vdda.n167 8.501